<?xml version="1.0" encoding="UTF-8"?>
<edges xmlns:xsi="http://www.w3.org/2001/XMLSchema-instance" xsi:noNamespaceSchemaLocation="http://sumo.dlr.de/xsd/edges_file.xsd">
    <edge from="4" id="4to5" to="5" />
    <edge from="5" id="5to6" to="6" />
    <edge from="7" id="7to8" to="8" />
    <edge from="8" id="8to9" to="9" />
    <edge from="2" id="2to1" to="1" />
    <edge from="1" id="1to3" to="3" />
    <edge from="10" id="10to11" to="11" />
    <edge from="11" id="11to12" to="12" />
    <edge from="4" id="4to7" to="7" />
    <edge from="7" id="7to2" to="2" />
    <edge from="2" id="2to10" to="10" />
    <edge from="5" id="5to8" to="8" />
    <edge from="8" id="8to1" to="1" />
    <edge from="1" id="1to11" to="11" />
    <edge from="6" id="6to9" to="9" />
    <edge from="9" id="9to3" to="3" />
    <edge from="3" id="3to12" to="12" />

</edges>
