<additional >

<edgeData id="measure1" file="outputatlc3_0_1.xml"/>

</additional>

