<additional >

<edgeData id="measure1" file="outputtap3_0_1.xml"/>

</additional>

