<?xml version="1.0" encoding="UTF-8"?>

<!-- generated on Tue Sep 24 00:21:01 2019 by Eclipse SUMO duarouter Version 1.2.0
<configuration xmlns:xsi="http://www.w3.org/2001/XMLSchema-instance" xsi:noNamespaceSchemaLocation="http://sumo.dlr.de/xsd/duarouterConfiguration.xsd">

    <input>
        <net-file value="dayuan.cross.net.xml"/>
        <route-files value="dayuan.trips.trips.xml"/>
    </input>

    <output>
        <output-file value="dayuan.cross.rou.xml"/>
        <alternatives-output value="dayuan.cross.rou.alt.xml"/>
    </output>

    <time>
        <begin value="0"/>
        <end value="3600"/>
    </time>

    <report>
        <no-warnings value="true"/>
        <ignore-errors value="true"/>
        <no-step-log value="true"/>
    </report>

</configuration>
-->

<routes xmlns:xsi="http://www.w3.org/2001/XMLSchema-instance" xsi:noNamespaceSchemaLocation="http://sumo.dlr.de/xsd/routes_file.xsd">
    <vType id="bus" vClass="bus"/>
    <vehicle id="5" type="bus" depart="5.00">
        <route edges="53o 3i 4o 54i 54o 4i 3o 53i"/>
    </vehicle>
    <vehicle id="6" type="bus" depart="6.00">
        <route edges="54o 4i 3o 53i 53o 3i 4o 54i"/>
    </vehicle>
    <vehicle id="7" type="bus" depart="7.00">
        <route edges="53o 3i 4o 54i"/>
    </vehicle>
    <vehicle id="8" type="bus" depart="8.00">
        <route edges="53o 3i 4o 54i 54o 4i 3o 53i"/>
    </vehicle>
    <vehicle id="9" type="bus" depart="9.00">
        <route edges="54o 4i 3o 53i 53o 3i 4o 54i"/>
    </vehicle>
    <vehicle id="11" type="bus" depart="11.00">
        <route edges="52o 2i 1o 51i"/>
    </vehicle>
    <vehicle id="12" type="bus" depart="12.00">
        <route edges="52o 2i 1o 51i"/>
    </vehicle>
    <vehicle id="15" type="bus" depart="15.00">
        <route edges="51o 1i 2o 52i"/>
    </vehicle>
    <vehicle id="16" type="bus" depart="16.00">
        <route edges="51o 1i 2o 52i 52o 2i"/>
    </vehicle>
    <vehicle id="18" type="bus" depart="18.00">
        <route edges="52o 2i 1o 51i 51o 1i 2o 52i"/>
    </vehicle>
    <vehicle id="20" type="bus" depart="20.00">
        <route edges="53o 3i 4o 54i 54o 4i 3o 53i"/>
    </vehicle>
    <vehicle id="21" type="bus" depart="21.00">
        <route edges="51o 1i 2o 52i 52o 2i 1o 51i"/>
    </vehicle>
    <vehicle id="25" type="bus" depart="25.00">
        <route edges="53o 3i 4o 54i"/>
    </vehicle>
    <vehicle id="27" type="bus" depart="27.00">
        <route edges="54o 4i 3o 53i"/>
    </vehicle>
    <vehicle id="28" type="bus" depart="28.00">
        <route edges="51o 1i 2o 52i 52o 2i 1o 51i"/>
    </vehicle>
    <vehicle id="29" type="bus" depart="29.00">
        <route edges="54o 4i 3o 53i 53o 3i 4o 54i"/>
    </vehicle>
    <vehicle id="31" type="bus" depart="31.00">
        <route edges="53o 3i 4o 54i"/>
    </vehicle>
    <vehicle id="34" type="bus" depart="34.00">
        <route edges="51o 1i 2o 52i"/>
    </vehicle>
    <vehicle id="35" type="bus" depart="35.00">
        <route edges="53o 3i 4o 54i"/>
    </vehicle>
    <vehicle id="36" type="bus" depart="36.00">
        <route edges="54o 4i 3o 53i 53o 3i 4o 54i"/>
    </vehicle>
    <vehicle id="38" type="bus" depart="38.00">
        <route edges="52o 2i 1o 51i"/>
    </vehicle>
    <vehicle id="39" type="bus" depart="39.00">
        <route edges="52o 2i 1o 51i 51o 1i 2o 52i"/>
    </vehicle>
    <vehicle id="40" type="bus" depart="40.00">
        <route edges="54o 4i 3o 53i 53o 3i 4o 54i"/>
    </vehicle>
    <vehicle id="41" type="bus" depart="41.00">
        <route edges="53o 3i 4o 54i 54o 4i 3o 53i"/>
    </vehicle>
    <vehicle id="45" type="bus" depart="45.00">
        <route edges="54o 4i 3o 53i"/>
    </vehicle>
    <vehicle id="47" type="bus" depart="47.00">
        <route edges="53o 3i 4o 54i"/>
    </vehicle>
    <vehicle id="48" type="bus" depart="48.00">
        <route edges="51o 1i 2o 52i 52o 2i 1o 51i"/>
    </vehicle>
    <vehicle id="50" type="bus" depart="50.00">
        <route edges="52o 2i 1o 51i 51o 1i 2o 52i"/>
    </vehicle>
    <vehicle id="51" type="bus" depart="51.00">
        <route edges="51o 1i 2o 52i 52o 2i 1o 51i"/>
    </vehicle>
    <vehicle id="52" type="bus" depart="52.00">
        <route edges="2i 1o 51i 51o 1i 2o 52i"/>
    </vehicle>
    <vehicle id="55" type="bus" depart="55.00">
        <route edges="53o 3i 4o 54i 54o 4i 3o 53i"/>
    </vehicle>
    <vehicle id="56" type="bus" depart="56.00">
        <route edges="54o 4i 3o 53i 53o 3i 4o 54i"/>
    </vehicle>
    <vehicle id="57" type="bus" depart="57.00">
        <route edges="53o 3i 4o 54i"/>
    </vehicle>
    <vehicle id="58" type="bus" depart="58.00">
        <route edges="52o 2i 1o 51i"/>
    </vehicle>
    <vehicle id="61" type="bus" depart="61.00">
        <route edges="52o 2i 1o 51i"/>
    </vehicle>
    <vehicle id="62" type="bus" depart="62.00">
        <route edges="53o 3i 4o 54i"/>
    </vehicle>
    <vehicle id="63" type="bus" depart="63.00">
        <route edges="51o 1i 2o 52i 52o 2i"/>
    </vehicle>
    <vehicle id="65" type="bus" depart="65.00">
        <route edges="51o 1i"/>
    </vehicle>
    <vehicle id="66" type="bus" depart="66.00">
        <route edges="51o 1i 2o 52i"/>
    </vehicle>
    <vehicle id="68" type="bus" depart="68.00">
        <route edges="54o 4i 3o 53i"/>
    </vehicle>
    <vehicle id="71" type="bus" depart="71.00">
        <route edges="52o 2i 1o 51i 51o 1i 2o 52i"/>
    </vehicle>
    <vehicle id="72" type="bus" depart="72.00">
        <route edges="54o 4i 3o 53i 53o 3i 4o 54i"/>
    </vehicle>
    <vehicle id="73" type="bus" depart="73.00">
        <route edges="51o 1i 2o 52i 52o 2i 1o 51i"/>
    </vehicle>
    <vehicle id="76" type="bus" depart="76.00">
        <route edges="54o 4i 3o 53i"/>
    </vehicle>
    <vehicle id="77" type="bus" depart="77.00">
        <route edges="53o 3i 4o 54i 54o 4i 3o 53i"/>
    </vehicle>
    <vehicle id="79" type="bus" depart="79.00">
        <route edges="54o 4i 3o 53i 53o 3i 4o 54i"/>
    </vehicle>
    <vehicle id="80" type="bus" depart="80.00">
        <route edges="51o 1i 2o 52i"/>
    </vehicle>
    <vehicle id="81" type="bus" depart="81.00">
        <route edges="51o 1i 2o 52i"/>
    </vehicle>
    <vehicle id="84" type="bus" depart="84.00">
        <route edges="54o 4i 3o 53i 53o 3i 4o 54i"/>
    </vehicle>
    <vehicle id="86" type="bus" depart="86.00">
        <route edges="51o 1i 2o 52i"/>
    </vehicle>
    <vehicle id="88" type="bus" depart="88.00">
        <route edges="53o 3i 4o 54i"/>
    </vehicle>
    <vehicle id="90" type="bus" depart="90.00">
        <route edges="54o 4i 3o 53i 53o 3i 4o 54i"/>
    </vehicle>
    <vehicle id="91" type="bus" depart="91.00">
        <route edges="54o 4i 3o 53i 53o 3i 4o 54i"/>
    </vehicle>
    <vehicle id="92" type="bus" depart="92.00">
        <route edges="54o 4i 3o 53i"/>
    </vehicle>
    <vehicle id="93" type="bus" depart="93.00">
        <route edges="52o 2i 1o 51i"/>
    </vehicle>
    <vehicle id="97" type="bus" depart="97.00">
        <route edges="54o 4i 3o 53i 53o 3i 4o 54i"/>
    </vehicle>
    <vehicle id="99" type="bus" depart="99.00">
        <route edges="53o 3i 4o 54i 54o 4i 3o 53i"/>
    </vehicle>
    <vehicle id="101" type="bus" depart="101.00">
        <route edges="53o 3i 4o 54i 54o 4i 3o 53i"/>
    </vehicle>
    <vehicle id="102" type="bus" depart="102.00">
        <route edges="51o 1i 2o 52i 52o 2i 1o 51i"/>
    </vehicle>
    <vehicle id="103" type="bus" depart="103.00">
        <route edges="52o 2i 1o 51i 51o 1i 2o 52i"/>
    </vehicle>
    <vehicle id="109" type="bus" depart="109.00">
        <route edges="51o 1i 2o 52i"/>
    </vehicle>
    <vehicle id="112" type="bus" depart="112.00">
        <route edges="53o 3i 4o 54i 54o 4i 3o 53i"/>
    </vehicle>
    <vehicle id="117" type="bus" depart="117.00">
        <route edges="54o 4i 3o 53i"/>
    </vehicle>
    <vehicle id="118" type="bus" depart="118.00">
        <route edges="53o 3i 4o 54i 54o 4i 3o 53i"/>
    </vehicle>
    <vehicle id="119" type="bus" depart="119.00">
        <route edges="53o 3i 4o 54i 54o 4i 3o 53i"/>
    </vehicle>
    <vehicle id="120" type="bus" depart="120.00">
        <route edges="54o 4i 3o 53i 53o 3i 4o 54i"/>
    </vehicle>
    <vehicle id="123" type="bus" depart="123.00">
        <route edges="52o 2i 1o 51i 51o 1i 2o"/>
    </vehicle>
    <vehicle id="125" type="bus" depart="125.00">
        <route edges="51o 1i 2o 52i 52o 2i 1o 51i"/>
    </vehicle>
    <vehicle id="126" type="bus" depart="126.00">
        <route edges="53o 3i 4o 54i"/>
    </vehicle>
    <vehicle id="127" type="bus" depart="127.00">
        <route edges="53o 3i 4o 54i"/>
    </vehicle>
    <vehicle id="131" type="bus" depart="131.00">
        <route edges="51o 1i 2o 52i 52o 2i 1o 51i"/>
    </vehicle>
    <vehicle id="132" type="bus" depart="132.00">
        <route edges="51o 1i 2o 52i 52o 2i 1o 51i"/>
    </vehicle>
    <vehicle id="134" type="bus" depart="134.00">
        <route edges="54o 4i 3o 53i 53o 3i 4o 54i"/>
    </vehicle>
    <vehicle id="139" type="bus" depart="139.00">
        <route edges="52o 2i 1o 51i 51o 1i 2o 52i"/>
    </vehicle>
    <vehicle id="142" type="bus" depart="142.00">
        <route edges="52o 2i 1o 51i"/>
    </vehicle>
    <vehicle id="147" type="bus" depart="147.00">
        <route edges="51o 1i 2o 52i"/>
    </vehicle>
    <vehicle id="148" type="bus" depart="148.00">
        <route edges="51o 1i 2o 52i"/>
    </vehicle>
    <vehicle id="150" type="bus" depart="150.00">
        <route edges="52o 2i 1o 51i"/>
    </vehicle>
    <vehicle id="154" type="bus" depart="154.00">
        <route edges="53o 3i 4o 54i"/>
    </vehicle>
    <vehicle id="155" type="bus" depart="155.00">
        <route edges="51o 1i 2o 52i 52o 2i 1o 51i"/>
    </vehicle>
    <vehicle id="159" type="bus" depart="159.00">
        <route edges="54o 4i 3o 53i 53o 3i 4o 54i"/>
    </vehicle>
    <vehicle id="161" type="bus" depart="161.00">
        <route edges="52o 2i 1o 51i 51o 1i 2o 52i"/>
    </vehicle>
    <vehicle id="162" type="bus" depart="162.00">
        <route edges="52o 2i 1o 51i"/>
    </vehicle>
    <vehicle id="163" type="bus" depart="163.00">
        <route edges="54o 4i 3o 53i 53o 3i 4o 54i"/>
    </vehicle>
    <vehicle id="164" type="bus" depart="164.00">
        <route edges="51o 1i 2o 52i 52o 2i 1o 51i"/>
    </vehicle>
    <vehicle id="167" type="bus" depart="167.00">
        <route edges="51o 1i 2o 52i"/>
    </vehicle>
    <vehicle id="168" type="bus" depart="168.00">
        <route edges="51o 1i 2o 52i 52o 2i 1o 51i"/>
    </vehicle>
    <vehicle id="169" type="bus" depart="169.00">
        <route edges="54o 4i 3o 53i 53o 3i 4o 54i"/>
    </vehicle>
    <vehicle id="171" type="bus" depart="171.00">
        <route edges="51o 1i 2o 52i 52o 2i 1o 51i"/>
    </vehicle>
    <vehicle id="172" type="bus" depart="172.00">
        <route edges="52o 2i 1o 51i"/>
    </vehicle>
    <vehicle id="175" type="bus" depart="175.00">
        <route edges="51o 1i 2o 52i"/>
    </vehicle>
    <vehicle id="176" type="bus" depart="176.00">
        <route edges="52o 2i 1o 51i 51o 1i 2o 52i"/>
    </vehicle>
    <vehicle id="179" type="bus" depart="179.00">
        <route edges="54o 4i 3o 53i"/>
    </vehicle>
    <vehicle id="180" type="bus" depart="180.00">
        <route edges="53o 3i 4o 54i"/>
    </vehicle>
    <vehicle id="186" type="bus" depart="186.00">
        <route edges="53o 3i 4o 54i"/>
    </vehicle>
    <vehicle id="191" type="bus" depart="191.00">
        <route edges="54o 4i 3o 53i 53o 3i 4o 54i"/>
    </vehicle>
    <vehicle id="193" type="bus" depart="193.00">
        <route edges="51o 1i 2o 52i 52o 2i 1o 51i"/>
    </vehicle>
    <vehicle id="194" type="bus" depart="194.00">
        <route edges="52o 2i 1o 51i 51o 1i 2o 52i"/>
    </vehicle>
    <vehicle id="197" type="bus" depart="197.00">
        <route edges="52o 2i 1o 51i"/>
    </vehicle>
    <vehicle id="198" type="bus" depart="198.00">
        <route edges="54o 4i 3o 53i"/>
    </vehicle>
    <vehicle id="199" type="bus" depart="199.00">
        <route edges="52o 2i 1o 51i 51o 1i 2o 52i"/>
    </vehicle>
    <vehicle id="202" type="bus" depart="202.00">
        <route edges="53o 3i 4o 54i 54o 4i 3o 53i"/>
    </vehicle>
    <vehicle id="205" type="bus" depart="205.00">
        <route edges="54o 4i 3o 53i"/>
    </vehicle>
    <vehicle id="207" type="bus" depart="207.00">
        <route edges="53o 3i 4o 54i 54o 4i 3o 53i"/>
    </vehicle>
    <vehicle id="209" type="bus" depart="209.00">
        <route edges="51o 1i 2o 52i 52o 2i 1o 51i"/>
    </vehicle>
    <vehicle id="213" type="bus" depart="213.00">
        <route edges="54o 4i 3o 53i"/>
    </vehicle>
    <vehicle id="215" type="bus" depart="215.00">
        <route edges="53o 3i 4o 54i"/>
    </vehicle>
    <vehicle id="217" type="bus" depart="217.00">
        <route edges="53o 3i 4o 54i 54o 4i 3o 53i"/>
    </vehicle>
    <vehicle id="218" type="bus" depart="218.00">
        <route edges="51o 1i 2o 52i"/>
    </vehicle>
    <vehicle id="221" type="bus" depart="221.00">
        <route edges="52o 2i 1o 51i"/>
    </vehicle>
    <vehicle id="225" type="bus" depart="225.00">
        <route edges="51o 1i 2o 52i"/>
    </vehicle>
    <vehicle id="228" type="bus" depart="228.00">
        <route edges="51o 1i 2o 52i 52o 2i 1o 51i"/>
    </vehicle>
    <vehicle id="230" type="bus" depart="230.00">
        <route edges="51o 1i 2o 52i"/>
    </vehicle>
    <vehicle id="232" type="bus" depart="232.00">
        <route edges="51o 1i 2o 52i 52o 2i 1o 51i"/>
    </vehicle>
    <vehicle id="234" type="bus" depart="234.00">
        <route edges="52o 2i 1o 51i"/>
    </vehicle>
    <vehicle id="235" type="bus" depart="235.00">
        <route edges="54o 4i 3o 53i 53o 3i 4o 54i"/>
    </vehicle>
    <vehicle id="237" type="bus" depart="237.00">
        <route edges="52o 2i 1o 51i 51o 1i 2o 52i"/>
    </vehicle>
    <vehicle id="239" type="bus" depart="239.00">
        <route edges="53o 3i 4o 54i"/>
    </vehicle>
    <vehicle id="240" type="bus" depart="240.00">
        <route edges="53o 3i 4o 54i"/>
    </vehicle>
    <vehicle id="243" type="bus" depart="243.00">
        <route edges="51o 1i 2o 52i"/>
    </vehicle>
    <vehicle id="244" type="bus" depart="244.00">
        <route edges="52o 2i 1o 51i 51o 1i 2o 52i"/>
    </vehicle>
    <vehicle id="246" type="bus" depart="246.00">
        <route edges="54o 4i 3o 53i"/>
    </vehicle>
    <vehicle id="249" type="bus" depart="249.00">
        <route edges="54o 4i 3o 53i"/>
    </vehicle>
    <vehicle id="252" type="bus" depart="252.00">
        <route edges="51o 1i 2o 52i"/>
    </vehicle>
    <vehicle id="254" type="bus" depart="254.00">
        <route edges="4i 3o 53i 53o 3i 4o 54i"/>
    </vehicle>
    <vehicle id="255" type="bus" depart="255.00">
        <route edges="53o 3i 4o 54i"/>
    </vehicle>
    <vehicle id="260" type="bus" depart="260.00">
        <route edges="53o 3i 4o 54i 54o 4i 3o 53i"/>
    </vehicle>
    <vehicle id="261" type="bus" depart="261.00">
        <route edges="52o 2i 1o 51i 51o 1i 2o 52i"/>
    </vehicle>
    <vehicle id="262" type="bus" depart="262.00">
        <route edges="54o 4i 3o 53i 53o 3i 4o 54i"/>
    </vehicle>
    <vehicle id="263" type="bus" depart="263.00">
        <route edges="54o 4i 3o 53i 53o 3i 4o 54i"/>
    </vehicle>
    <vehicle id="265" type="bus" depart="265.00">
        <route edges="52o 2i 1o 51i 51o 1i 2o 52i"/>
    </vehicle>
    <vehicle id="268" type="bus" depart="268.00">
        <route edges="51o 1i 2o 52i 52o 2i"/>
    </vehicle>
    <vehicle id="269" type="bus" depart="269.00">
        <route edges="51o 1i 2o 52i"/>
    </vehicle>
    <vehicle id="270" type="bus" depart="270.00">
        <route edges="54o 4i 3o 53i"/>
    </vehicle>
    <vehicle id="271" type="bus" depart="271.00">
        <route edges="53o 3i 4o 54i"/>
    </vehicle>
    <vehicle id="274" type="bus" depart="274.00">
        <route edges="52o 2i 1o 51i"/>
    </vehicle>
    <vehicle id="277" type="bus" depart="277.00">
        <route edges="53o 3i 4o 54i"/>
    </vehicle>
    <vehicle id="278" type="bus" depart="278.00">
        <route edges="52o 2i 1o 51i"/>
    </vehicle>
    <vehicle id="279" type="bus" depart="279.00">
        <route edges="53o 3i 4o 54i 54o 4i 3o 53i"/>
    </vehicle>
    <vehicle id="281" type="bus" depart="281.00">
        <route edges="52o 2i 1o 51i"/>
    </vehicle>
    <vehicle id="282" type="bus" depart="282.00">
        <route edges="54o 4i 3o 53i"/>
    </vehicle>
    <vehicle id="286" type="bus" depart="286.00">
        <route edges="51o 1i 2o 52i 52o 2i 1o 51i"/>
    </vehicle>
    <vehicle id="288" type="bus" depart="288.00">
        <route edges="53o 3i 4o 54i"/>
    </vehicle>
    <vehicle id="291" type="bus" depart="291.00">
        <route edges="52o 2i 1o 51i 51o 1i 2o 52i"/>
    </vehicle>
    <vehicle id="292" type="bus" depart="292.00">
        <route edges="2i 1o 51i 51o 1i 2o 52i"/>
    </vehicle>
    <vehicle id="295" type="bus" depart="295.00">
        <route edges="52o 2i 1o 51i"/>
    </vehicle>
    <vehicle id="296" type="bus" depart="296.00">
        <route edges="51o 1i 2o 52i"/>
    </vehicle>
    <vehicle id="297" type="bus" depart="297.00">
        <route edges="52o 2i 1o 51i 51o 1i 2o 52i"/>
    </vehicle>
    <vehicle id="299" type="bus" depart="299.00">
        <route edges="53o 3i 4o 54i"/>
    </vehicle>
    <vehicle id="300" type="bus" depart="300.00">
        <route edges="52o 2i 1o 51i 51o 1i 2o 52i"/>
    </vehicle>
    <vehicle id="303" type="bus" depart="303.00">
        <route edges="51o 1i 2o 52i 52o 2i"/>
    </vehicle>
    <vehicle id="304" type="bus" depart="304.00">
        <route edges="54o 4i 3o 53i"/>
    </vehicle>
    <vehicle id="306" type="bus" depart="306.00">
        <route edges="51o 1i 2o 52i 52o 2i 1o 51i"/>
    </vehicle>
    <vehicle id="310" type="bus" depart="310.00">
        <route edges="51o 1i 2o 52i"/>
    </vehicle>
    <vehicle id="312" type="bus" depart="312.00">
        <route edges="51o 1i 2o 52i 52o 2i 1o 51i"/>
    </vehicle>
    <vehicle id="314" type="bus" depart="314.00">
        <route edges="52o 2i 1o 51i 51o 1i 2o 52i"/>
    </vehicle>
    <vehicle id="315" type="bus" depart="315.00">
        <route edges="53o 3i 4o 54i"/>
    </vehicle>
    <vehicle id="316" type="bus" depart="316.00">
        <route edges="52o 2i 1o 51i"/>
    </vehicle>
    <vehicle id="317" type="bus" depart="317.00">
        <route edges="54o 4i 3o 53i 53o 3i 4o 54i"/>
    </vehicle>
    <vehicle id="319" type="bus" depart="319.00">
        <route edges="53o 3i 4o 54i"/>
    </vehicle>
    <vehicle id="320" type="bus" depart="320.00">
        <route edges="51o 1i 2o 52i 52o 2i 1o 51i"/>
    </vehicle>
    <vehicle id="322" type="bus" depart="322.00">
        <route edges="51o 1i 2o 52i 52o 2i 1o 51i"/>
    </vehicle>
    <vehicle id="324" type="bus" depart="324.00">
        <route edges="53o 3i 4o 54i 54o 4i 3o 53i"/>
    </vehicle>
    <vehicle id="325" type="bus" depart="325.00">
        <route edges="54o 4i 3o 53i"/>
    </vehicle>
    <vehicle id="326" type="bus" depart="326.00">
        <route edges="2o 52i 52o 2i 1o 51i"/>
    </vehicle>
    <vehicle id="329" type="bus" depart="329.00">
        <route edges="52o 2i 1o 51i"/>
    </vehicle>
    <vehicle id="330" type="bus" depart="330.00">
        <route edges="51o 1i 2o 52i 52o 2i 1o 51i"/>
    </vehicle>
    <vehicle id="331" type="bus" depart="331.00">
        <route edges="52o 2i 1o 51i 51o 1i 2o 52i"/>
    </vehicle>
    <vehicle id="332" type="bus" depart="332.00">
        <route edges="53o 3i 4o 54i"/>
    </vehicle>
    <vehicle id="333" type="bus" depart="333.00">
        <route edges="51o 1i 2o 52i 52o 2i 1o 51i"/>
    </vehicle>
    <vehicle id="338" type="bus" depart="338.00">
        <route edges="54o 4i 3o 53i 53o 3i 4o 54i"/>
    </vehicle>
    <vehicle id="339" type="bus" depart="339.00">
        <route edges="51o 1i 2o 52i"/>
    </vehicle>
    <vehicle id="340" type="bus" depart="340.00">
        <route edges="54o 4i 3o 53i 53o 3i 4o 54i"/>
    </vehicle>
    <vehicle id="342" type="bus" depart="342.00">
        <route edges="52o 2i 1o 51i 51o 1i 2o 52i"/>
    </vehicle>
    <vehicle id="343" type="bus" depart="343.00">
        <route edges="53o 3i 4o 54i"/>
    </vehicle>
    <vehicle id="344" type="bus" depart="344.00">
        <route edges="52o 2i 1o 51i 51o 1i 2o 52i"/>
    </vehicle>
    <vehicle id="345" type="bus" depart="345.00">
        <route edges="52o 2i 1o 51i"/>
    </vehicle>
    <vehicle id="346" type="bus" depart="346.00">
        <route edges="53o 3i 4o 54i"/>
    </vehicle>
    <vehicle id="348" type="bus" depart="348.00">
        <route edges="52o 2i 1o 51i 51o 1i 2o 52i"/>
    </vehicle>
    <vehicle id="350" type="bus" depart="350.00">
        <route edges="51o 1i 2o 52i 52o 2i 1o 51i"/>
    </vehicle>
    <vehicle id="351" type="bus" depart="351.00">
        <route edges="51o 1i 2o 52i 52o 2i 1o 51i"/>
    </vehicle>
    <vehicle id="352" type="bus" depart="352.00">
        <route edges="51o 1i 2o 52i 52o 2i 1o 51i"/>
    </vehicle>
    <vehicle id="354" type="bus" depart="354.00">
        <route edges="54o 4i 3o 53i 53o 3i 4o 54i"/>
    </vehicle>
    <vehicle id="359" type="bus" depart="359.00">
        <route edges="54o 4i 3o 53i"/>
    </vehicle>
    <vehicle id="360" type="bus" depart="360.00">
        <route edges="53o 3i 4o 54i"/>
    </vehicle>
    <vehicle id="361" type="bus" depart="361.00">
        <route edges="51o 1i 2o 52i 52o 2i 1o 51i"/>
    </vehicle>
    <vehicle id="362" type="bus" depart="362.00">
        <route edges="51o 1i 2o 52i 52o 2i 1o 51i"/>
    </vehicle>
    <vehicle id="363" type="bus" depart="363.00">
        <route edges="51o 1i 2o 52i 52o 2i 1o 51i"/>
    </vehicle>
    <vehicle id="364" type="bus" depart="364.00">
        <route edges="54o 4i 3o 53i"/>
    </vehicle>
    <vehicle id="366" type="bus" depart="366.00">
        <route edges="54o 4i 3o 53i"/>
    </vehicle>
    <vehicle id="367" type="bus" depart="367.00">
        <route edges="53o 3i 4o 54i 54o 4i 3o 53i"/>
    </vehicle>
    <vehicle id="372" type="bus" depart="372.00">
        <route edges="51o 1i 2o 52i 52o 2i 1o 51i"/>
    </vehicle>
    <vehicle id="373" type="bus" depart="373.00">
        <route edges="53o 3i 4o 54i"/>
    </vehicle>
    <vehicle id="374" type="bus" depart="374.00">
        <route edges="51o 1i 2o 52i"/>
    </vehicle>
    <vehicle id="375" type="bus" depart="375.00">
        <route edges="53o 3i 4o 54i 54o 4i 3o 53i"/>
    </vehicle>
    <vehicle id="376" type="bus" depart="376.00">
        <route edges="51o 1i 2o 52i"/>
    </vehicle>
    <vehicle id="377" type="bus" depart="377.00">
        <route edges="52o 2i 1o 51i"/>
    </vehicle>
    <vehicle id="380" type="bus" depart="380.00">
        <route edges="51o 1i 2o 52i 52o 2i 1o 51i"/>
    </vehicle>
    <vehicle id="381" type="bus" depart="381.00">
        <route edges="53o 3i 4o 54i"/>
    </vehicle>
    <vehicle id="387" type="bus" depart="387.00">
        <route edges="51o 1i 2o 52i"/>
    </vehicle>
    <vehicle id="389" type="bus" depart="389.00">
        <route edges="51o 1i 2o 52i"/>
    </vehicle>
    <vehicle id="390" type="bus" depart="390.00">
        <route edges="53o 3i 4o 54i 54o 4i 3o 53i"/>
    </vehicle>
    <vehicle id="391" type="bus" depart="391.00">
        <route edges="54o 4i 3o 53i 53o 3i 4o 54i"/>
    </vehicle>
    <vehicle id="396" type="bus" depart="396.00">
        <route edges="53o 3i 4o 54i 54o 4i 3o 53i"/>
    </vehicle>
    <vehicle id="397" type="bus" depart="397.00">
        <route edges="51o 1i 2o 52i"/>
    </vehicle>
    <vehicle id="401" type="bus" depart="401.00">
        <route edges="52o 2i 1o 51i 51o 1i 2o 52i"/>
    </vehicle>
    <vehicle id="402" type="bus" depart="402.00">
        <route edges="52o 2i 1o 51i"/>
    </vehicle>
    <vehicle id="406" type="bus" depart="406.00">
        <route edges="54o 4i 3o 53i 53o 3i 4o 54i"/>
    </vehicle>
    <vehicle id="410" type="bus" depart="410.00">
        <route edges="52o 2i 1o 51i"/>
    </vehicle>
    <vehicle id="412" type="bus" depart="412.00">
        <route edges="54o 4i 3o 53i 53o 3i 4o 54i"/>
    </vehicle>
    <vehicle id="414" type="bus" depart="414.00">
        <route edges="52o 2i 1o 51i 51o 1i 2o 52i"/>
    </vehicle>
    <vehicle id="415" type="bus" depart="415.00">
        <route edges="51o 1i 2o 52i"/>
    </vehicle>
    <vehicle id="416" type="bus" depart="416.00">
        <route edges="52o 2i 1o 51i 51o 1i 2o 52i"/>
    </vehicle>
    <vehicle id="423" type="bus" depart="423.00">
        <route edges="51o 1i 2o 52i 52o 2i 1o 51i"/>
    </vehicle>
    <vehicle id="425" type="bus" depart="425.00">
        <route edges="54o 4i 3o 53i"/>
    </vehicle>
    <vehicle id="427" type="bus" depart="427.00">
        <route edges="52o 2i 1o 51i"/>
    </vehicle>
    <vehicle id="432" type="bus" depart="432.00">
        <route edges="54o 4i 3o 53i 53o 3i 4o 54i"/>
    </vehicle>
    <vehicle id="435" type="bus" depart="435.00">
        <route edges="53o 3i 4o 54i"/>
    </vehicle>
    <vehicle id="436" type="bus" depart="436.00">
        <route edges="52o 2i 1o 51i"/>
    </vehicle>
    <vehicle id="438" type="bus" depart="438.00">
        <route edges="52o 2i 1o 51i"/>
    </vehicle>
    <vehicle id="439" type="bus" depart="439.00">
        <route edges="51o 1i 2o 52i"/>
    </vehicle>
    <vehicle id="440" type="bus" depart="440.00">
        <route edges="54o 4i 3o 53i 53o 3i 4o 54i"/>
    </vehicle>
    <vehicle id="441" type="bus" depart="441.00">
        <route edges="51o 1i 2o 52i"/>
    </vehicle>
    <vehicle id="445" type="bus" depart="445.00">
        <route edges="51o 1i 2o 52i"/>
    </vehicle>
    <vehicle id="447" type="bus" depart="447.00">
        <route edges="54o 4i 3o 53i 53o 3i 4o 54i"/>
    </vehicle>
    <vehicle id="448" type="bus" depart="448.00">
        <route edges="53o 3i 4o 54i 54o 4i 3o 53i"/>
    </vehicle>
    <vehicle id="452" type="bus" depart="452.00">
        <route edges="54o 4i 3o 53i 53o 3i 4o 54i"/>
    </vehicle>
    <vehicle id="453" type="bus" depart="453.00">
        <route edges="53o 3i 4o 54i 54o 4i 3o 53i"/>
    </vehicle>
    <vehicle id="454" type="bus" depart="454.00">
        <route edges="52o 2i 1o 51i 51o 1i 2o 52i"/>
    </vehicle>
    <vehicle id="457" type="bus" depart="457.00">
        <route edges="54o 4i 3o 53i"/>
    </vehicle>
    <vehicle id="458" type="bus" depart="458.00">
        <route edges="53o 3i 4o 54i 54o 4i 3o 53i"/>
    </vehicle>
    <vehicle id="459" type="bus" depart="459.00">
        <route edges="51o 1i 2o 52i"/>
    </vehicle>
    <vehicle id="460" type="bus" depart="460.00">
        <route edges="52o 2i 1o 51i"/>
    </vehicle>
    <vehicle id="461" type="bus" depart="461.00">
        <route edges="53o 3i 4o 54i 54o 4i 3o 53i"/>
    </vehicle>
    <vehicle id="462" type="bus" depart="462.00">
        <route edges="52o 2i 1o 51i 51o 1i 2o 52i"/>
    </vehicle>
    <vehicle id="463" type="bus" depart="463.00">
        <route edges="51o 1i 2o 52i"/>
    </vehicle>
    <vehicle id="464" type="bus" depart="464.00">
        <route edges="51o 1i 2o 52i"/>
    </vehicle>
    <vehicle id="465" type="bus" depart="465.00">
        <route edges="51o 1i 2o 52i"/>
    </vehicle>
    <vehicle id="466" type="bus" depart="466.00">
        <route edges="54o 4i 3o 53i 53o 3i 4o 54i"/>
    </vehicle>
    <vehicle id="468" type="bus" depart="468.00">
        <route edges="51o 1i 2o 52i"/>
    </vehicle>
    <vehicle id="469" type="bus" depart="469.00">
        <route edges="54o 4i 3o 53i 53o 3i 4o 54i"/>
    </vehicle>
    <vehicle id="470" type="bus" depart="470.00">
        <route edges="54o 4i 3o 53i 53o 3i 4o 54i"/>
    </vehicle>
    <vehicle id="472" type="bus" depart="472.00">
        <route edges="51o 1i 2o 52i 52o 2i 1o 51i"/>
    </vehicle>
    <vehicle id="473" type="bus" depart="473.00">
        <route edges="51o 1i 2o 52i"/>
    </vehicle>
    <vehicle id="476" type="bus" depart="476.00">
        <route edges="53o 3i 4o 54i"/>
    </vehicle>
    <vehicle id="478" type="bus" depart="478.00">
        <route edges="54o 4i 3o 53i"/>
    </vehicle>
    <vehicle id="481" type="bus" depart="481.00">
        <route edges="51o 1i 2o 52i"/>
    </vehicle>
    <vehicle id="482" type="bus" depart="482.00">
        <route edges="51o 1i 2o 52i"/>
    </vehicle>
    <vehicle id="483" type="bus" depart="483.00">
        <route edges="54o 4i 3o 53i"/>
    </vehicle>
    <vehicle id="487" type="bus" depart="487.00">
        <route edges="52o 2i 1o 51i 51o 1i 2o 52i"/>
    </vehicle>
    <vehicle id="489" type="bus" depart="489.00">
        <route edges="51o 1i 2o 52i"/>
    </vehicle>
    <vehicle id="493" type="bus" depart="493.00">
        <route edges="52o 2i 1o 51i 51o 1i 2o 52i"/>
    </vehicle>
    <vehicle id="494" type="bus" depart="494.00">
        <route edges="53o 3i 4o 54i 54o 4i 3o 53i"/>
    </vehicle>
    <vehicle id="496" type="bus" depart="496.00">
        <route edges="51o 1i 2o 52i 52o 2i 1o 51i"/>
    </vehicle>
    <vehicle id="499" type="bus" depart="499.00">
        <route edges="51o 1i 2o 52i 52o 2i 1o 51i"/>
    </vehicle>
    <vehicle id="501" type="bus" depart="501.00">
        <route edges="52o 2i 1o 51i"/>
    </vehicle>
    <vehicle id="502" type="bus" depart="502.00">
        <route edges="52o 2i 1o 51i 51o 1i"/>
    </vehicle>
    <vehicle id="504" type="bus" depart="504.00">
        <route edges="53o 3i 4o 54i"/>
    </vehicle>
    <vehicle id="507" type="bus" depart="507.00">
        <route edges="1o 51i 51o 1i 2o 52i"/>
    </vehicle>
    <vehicle id="509" type="bus" depart="509.00">
        <route edges="53o 3i 4o 54i 54o 4i 3o 53i"/>
    </vehicle>
    <vehicle id="511" type="bus" depart="511.00">
        <route edges="54o 4i 3o 53i 53o 3i 4o 54i"/>
    </vehicle>
    <vehicle id="513" type="bus" depart="513.00">
        <route edges="53o 3i 4o 54i"/>
    </vehicle>