<additional >

<edgeData id="measure1" file="output365.xml"/>

</additional>

