<additional >

<edgeData id="measure1" file="1.0longtapiocaoutput.xml"/>

</additional>

