<additional >

<edgeData id="measure1" file="output3xx.xml"/>

</additional>

