<?xml version="1.0" encoding="UTF-8"?>

<!-- generated on Fri Feb 19 03:54:37 2021 by Eclipse SUMO netconvert Version 1.3.1
<configuration xmlns:xsi="http://www.w3.org/2001/XMLSchema-instance" xsi:noNamespaceSchemaLocation="http://sumo.dlr.de/xsd/netconvertConfiguration.xsd">

    <input>
        <node-files value="reschedule.nod.xml"/>
        <edge-files value="reschedule.edg.xml"/>
        <type-files value="reschedule.typ.xml"/>
    </input>

    <output>
        <output-file value="reschedule.net.xml"/>
    </output>

    <report>
        <verbose value="true"/>
    </report>

</configuration>
-->

<net version="1.3" junctionCornerDetail="5" limitTurnSpeed="5.50" xmlns:xsi="http://www.w3.org/2001/XMLSchema-instance" xsi:noNamespaceSchemaLocation="http://sumo.dlr.de/xsd/net_file.xsd">

    <location netOffset="0.00,100.00" convBoundary="0.00,0.00,200.00,200.00" origBoundary="0.00,-100.00,200.00,100.00" projParameter="!"/>

    <type id="a" numLanes="2"/>

    <edge id=":bottom_0" function="internal">
        <lane id=":bottom_0_0" index="0" speed="3.65" length="4.67" shape="98.40,0.00 99.20,-1.20 100.00,-1.60 100.80,-1.20 101.60,0.00"/>
    </edge>
    <edge id=":center_0" function="internal">
        <lane id=":center_0_0" index="0" speed="6.51" length="9.03" shape="95.20,110.40 94.85,107.95 93.80,106.20 92.05,105.15 89.60,104.80"/>
    </edge>
    <edge id=":center_1" function="internal">
        <lane id=":center_1_0" index="0" speed="13.89" length="20.80" shape="95.20,110.40 95.20,89.60"/>
        <lane id=":center_1_1" index="1" speed="13.89" length="20.80" shape="98.40,110.40 98.40,89.60"/>
    </edge>
    <edge id=":center_3" function="internal">
        <lane id=":center_3_0" index="0" speed="9.26" length="6.96" shape="98.40,110.40 99.15,105.15 100.00,103.73"/>
    </edge>
    <edge id=":center_4" function="internal">
        <lane id=":center_4_0" index="0" speed="3.65" length="2.34" shape="98.40,110.40 99.20,109.20 100.00,108.80"/>
    </edge>
    <edge id=":center_20" function="internal">
        <lane id=":center_20_0" index="0" speed="9.26" length="12.40" shape="100.00,103.73 101.40,101.40 105.15,99.15 110.40,98.40"/>
    </edge>
    <edge id=":center_21" function="internal">
        <lane id=":center_21_0" index="0" speed="3.65" length="2.34" shape="100.00,108.80 100.80,109.20 101.60,110.40"/>
    </edge>
    <edge id=":center_5" function="internal">
        <lane id=":center_5_0" index="0" speed="6.51" length="9.03" shape="110.40,104.80 107.95,105.15 106.20,106.20 105.15,107.95 104.80,110.40"/>
    </edge>
    <edge id=":center_6" function="internal">
        <lane id=":center_6_0" index="0" speed="13.89" length="20.80" shape="110.40,104.80 89.60,104.80"/>
        <lane id=":center_6_1" index="1" speed="13.89" length="20.80" shape="110.40,101.60 89.60,101.60"/>
    </edge>
    <edge id=":center_8" function="internal">
        <lane id=":center_8_0" index="0" speed="9.26" length="6.96" shape="110.40,101.60 105.15,100.85 103.73,100.00"/>
    </edge>
    <edge id=":center_9" function="internal">
        <lane id=":center_9_0" index="0" speed="3.65" length="2.34" shape="110.40,101.60 109.20,100.80 108.80,100.00"/>
    </edge>
    <edge id=":center_22" function="internal">
        <lane id=":center_22_0" index="0" speed="9.26" length="12.40" shape="103.73,100.00 101.40,98.60 99.15,94.85 98.40,89.60"/>
    </edge>
    <edge id=":center_23" function="internal">
        <lane id=":center_23_0" index="0" speed="3.65" length="2.34" shape="108.80,100.00 109.20,99.20 110.40,98.40"/>
    </edge>
    <edge id=":center_10" function="internal">
        <lane id=":center_10_0" index="0" speed="6.51" length="9.03" shape="104.80,89.60 105.15,92.05 106.20,93.80 107.95,94.85 110.40,95.20"/>
    </edge>
    <edge id=":center_11" function="internal">
        <lane id=":center_11_0" index="0" speed="13.89" length="20.80" shape="104.80,89.60 104.80,110.40"/>
        <lane id=":center_11_1" index="1" speed="13.89" length="20.80" shape="101.60,89.60 101.60,110.40"/>
    </edge>
    <edge id=":center_13" function="internal">
        <lane id=":center_13_0" index="0" speed="9.26" length="6.96" shape="101.60,89.60 100.85,94.85 100.00,96.27"/>
    </edge>
    <edge id=":center_14" function="internal">
        <lane id=":center_14_0" index="0" speed="3.65" length="2.34" shape="101.60,89.60 100.80,90.80 100.00,91.20"/>
    </edge>
    <edge id=":center_24" function="internal">
        <lane id=":center_24_0" index="0" speed="9.26" length="12.40" shape="100.00,96.27 98.60,98.60 94.85,100.85 89.60,101.60"/>
    </edge>
    <edge id=":center_25" function="internal">
        <lane id=":center_25_0" index="0" speed="3.65" length="2.34" shape="100.00,91.20 99.20,90.80 98.40,89.60"/>
    </edge>
    <edge id=":center_15" function="internal">
        <lane id=":center_15_0" index="0" speed="6.51" length="9.03" shape="89.60,95.20 92.05,94.85 93.80,93.80 94.85,92.05 95.20,89.60"/>
    </edge>
    <edge id=":center_16" function="internal">
        <lane id=":center_16_0" index="0" speed="13.89" length="20.80" shape="89.60,95.20 110.40,95.20"/>
        <lane id=":center_16_1" index="1" speed="13.89" length="20.80" shape="89.60,98.40 110.40,98.40"/>
    </edge>
    <edge id=":center_18" function="internal">
        <lane id=":center_18_0" index="0" speed="9.26" length="6.96" shape="89.60,98.40 94.85,99.15 96.27,100.00"/>
    </edge>
    <edge id=":center_19" function="internal">
        <lane id=":center_19_0" index="0" speed="3.65" length="2.34" shape="89.60,98.40 90.80,99.20 91.20,100.00"/>
    </edge>
    <edge id=":center_26" function="internal">
        <lane id=":center_26_0" index="0" speed="9.26" length="12.40" shape="96.27,100.00 98.60,101.40 100.85,105.15 101.60,110.40"/>
    </edge>
    <edge id=":center_27" function="internal">
        <lane id=":center_27_0" index="0" speed="3.65" length="2.34" shape="91.20,100.00 90.80,100.80 89.60,101.60"/>
    </edge>
    <edge id=":left_0" function="internal">
        <lane id=":left_0_0" index="0" speed="3.65" length="4.67" shape="0.00,101.60 -1.20,100.80 -1.60,100.00 -1.20,99.20 0.00,98.40"/>
    </edge>
    <edge id=":right_0" function="internal">
        <lane id=":right_0_0" index="0" speed="3.65" length="4.67" shape="200.00,98.40 201.20,99.20 201.60,100.00 201.20,100.80 200.00,101.60"/>
    </edge>
    <edge id=":top_0" function="internal">
        <lane id=":top_0_0" index="0" speed="3.65" length="4.67" shape="101.60,200.00 100.80,201.20 100.00,201.60 99.20,201.20 98.40,200.00"/>
    </edge>

    <edge id="btoc" from="bottom" to="center" priority="-1" type="a">
        <lane id="btoc_0" index="0" speed="13.89" length="89.60" shape="104.80,0.00 104.80,89.60"/>
        <lane id="btoc_1" index="1" speed="13.89" length="89.60" shape="101.60,0.00 101.60,89.60"/>
    </edge>
    <edge id="ctob" from="center" to="bottom" priority="-1" type="a">
        <lane id="ctob_0" index="0" speed="13.89" length="89.60" shape="95.20,89.60 95.20,0.00"/>
        <lane id="ctob_1" index="1" speed="13.89" length="89.60" shape="98.40,89.60 98.40,0.00"/>
    </edge>
    <edge id="ctol" from="center" to="left" priority="-1" type="a">
        <lane id="ctol_0" index="0" speed="13.89" length="89.60" shape="89.60,104.80 0.00,104.80"/>
        <lane id="ctol_1" index="1" speed="13.89" length="89.60" shape="89.60,101.60 0.00,101.60"/>
    </edge>
    <edge id="ctor" from="center" to="right" priority="-1" type="a">
        <lane id="ctor_0" index="0" speed="13.89" length="89.60" shape="110.40,95.20 200.00,95.20"/>
        <lane id="ctor_1" index="1" speed="13.89" length="89.60" shape="110.40,98.40 200.00,98.40"/>
    </edge>
    <edge id="ctot" from="center" to="top" priority="-1" type="a">
        <lane id="ctot_0" index="0" speed="13.89" length="89.60" shape="104.80,110.40 104.80,200.00"/>
        <lane id="ctot_1" index="1" speed="13.89" length="89.60" shape="101.60,110.40 101.60,200.00"/>
    </edge>
    <edge id="ltoc" from="left" to="center" priority="-1" type="a">
        <lane id="ltoc_0" index="0" speed="13.89" length="89.60" shape="0.00,95.20 89.60,95.20"/>
        <lane id="ltoc_1" index="1" speed="13.89" length="89.60" shape="0.00,98.40 89.60,98.40"/>
    </edge>
    <edge id="rtoc" from="right" to="center" priority="-1" type="a">
        <lane id="rtoc_0" index="0" speed="13.89" length="89.60" shape="200.00,104.80 110.40,104.80"/>
        <lane id="rtoc_1" index="1" speed="13.89" length="89.60" shape="200.00,101.60 110.40,101.60"/>
    </edge>
    <edge id="totoc" from="top" to="center" priority="-1" type="a">
        <lane id="totoc_0" index="0" speed="13.89" length="89.60" shape="95.20,200.00 95.20,110.40"/>
        <lane id="totoc_1" index="1" speed="13.89" length="89.60" shape="98.40,200.00 98.40,110.40"/>
    </edge>

    <tlLogic id="center" type="static" programID="0" offset="0">
        <phase duration="42" state="GGGggrrrrrGGGggrrrrr"/>
        <phase duration="3"  state="yyyyyrrrrryyyyyrrrrr"/>
        <phase duration="42" state="rrrrrGGGggrrrrrGGGgg"/>
        <phase duration="3"  state="rrrrryyyyyrrrrryyyyy"/>
    </tlLogic>

    <junction id="bottom" type="priority" x="100.00" y="0.00" incLanes="ctob_0 ctob_1" intLanes=":bottom_0_0" shape="100.00,0.00 93.60,0.00 100.00,0.00">
        <request index="0" response="0" foes="0" cont="0"/>
    </junction>
    <junction id="center" type="traffic_light" x="100.00" y="100.00" incLanes="totoc_0 totoc_1 rtoc_0 rtoc_1 btoc_0 btoc_1 ltoc_0 ltoc_1" intLanes=":center_0_0 :center_1_0 :center_1_1 :center_20_0 :center_21_0 :center_5_0 :center_6_0 :center_6_1 :center_22_0 :center_23_0 :center_10_0 :center_11_0 :center_11_1 :center_24_0 :center_25_0 :center_15_0 :center_16_0 :center_16_1 :center_26_0 :center_27_0" shape="93.60,110.40 106.40,110.40 106.84,108.18 107.40,107.40 108.18,106.84 109.18,106.51 110.40,106.40 110.40,93.60 108.18,93.16 107.40,92.60 106.84,91.82 106.51,90.82 106.40,89.60 93.60,89.60 93.16,91.82 92.60,92.60 91.82,93.16 90.82,93.49 89.60,93.60 89.60,106.40 91.82,106.84 92.60,107.40 93.16,108.18 93.49,109.18">
        <request index="0"  response="00000000000000000000" foes="00000000000011000000" cont="0"/>
        <request index="1"  response="01000000000100000000" foes="01111110000111000000" cont="0"/>
        <request index="2"  response="01000000000100000000" foes="01111110000111000000" cont="0"/>
        <request index="3"  response="01000001100100000000" foes="01110001101111000000" cont="1"/>
        <request index="4"  response="01000001100000000000" foes="01000001100000000000" cont="1"/>
        <request index="5"  response="00000001100000000000" foes="00000001100000000000" cont="0"/>
        <request index="6"  response="00000011100000001111" foes="11000011100000001111" cont="0"/>
        <request index="7"  response="00000011100000001111" foes="11000011100000001111" cont="0"/>
        <request index="8"  response="00110011100000001110" foes="00110111100000001110" cont="1"/>
        <request index="9"  response="00110000000000001000" foes="00110000000000001000" cont="1"/>
        <request index="10" response="00000000000000000000" foes="00110000000000000000" cont="0"/>
        <request index="11" response="01000000000100000000" foes="01110000000111111000" cont="0"/>
        <request index="12" response="01000000000100000000" foes="01110000000111111000" cont="0"/>
        <request index="13" response="01000000000100000110" foes="11110000000111000110" cont="1"/>
        <request index="14" response="00000000000100000110" foes="00000000000100000110" cont="1"/>
        <request index="15" response="00000000000000000110" foes="00000000000000000110" cont="0"/>
        <request index="16" response="00000011110000001110" foes="00000011111100001110" cont="0"/>
        <request index="17" response="00000011110000001110" foes="00000011111100001110" cont="0"/>
        <request index="18" response="00000011100011001110" foes="00000011100011011110" cont="1"/>
        <request index="19" response="00000010000011000000" foes="00000010000011000000" cont="1"/>
    </junction>
    <junction id="left" type="priority" x="0.00" y="100.00" incLanes="ctol_0 ctol_1" intLanes=":left_0_0" shape="0.00,100.00 0.00,106.40 0.00,100.00">
        <request index="0" response="0" foes="0" cont="0"/>
    </junction>
    <junction id="right" type="priority" x="200.00" y="100.00" incLanes="ctor_0 ctor_1" intLanes=":right_0_0" shape="200.00,100.00 200.00,93.60 200.00,100.00">
        <request index="0" response="0" foes="0" cont="0"/>
    </junction>
    <junction id="top" type="priority" x="100.00" y="200.00" incLanes="ctot_0 ctot_1" intLanes=":top_0_0" shape="100.00,200.00 106.40,200.00 100.00,200.00">
        <request index="0" response="0" foes="0" cont="0"/>
    </junction>

    <junction id=":center_20_0" type="internal" x="100.00" y="103.73" incLanes=":center_3_0 btoc_0 btoc_1" intLanes=":center_6_0 :center_6_1 :center_8_0 :center_9_0 :center_10_0 :center_11_0 :center_11_1 :center_16_0 :center_16_1 :center_18_0"/>
    <junction id=":center_21_0" type="internal" x="100.00" y="108.80" incLanes=":center_4_0 btoc_0 btoc_1 ltoc_1 rtoc_0" intLanes=":center_5_0 :center_11_0 :center_11_1 :center_18_0"/>
    <junction id=":center_22_0" type="internal" x="103.73" y="100.00" incLanes=":center_8_0 ltoc_0 ltoc_1" intLanes=":center_1_0 :center_1_1 :center_3_0 :center_11_0 :center_11_1 :center_13_0 :center_14_0 :center_15_0 :center_16_0 :center_16_1"/>
    <junction id=":center_23_0" type="internal" x="108.80" y="100.00" incLanes=":center_9_0 btoc_0 ltoc_0 ltoc_1 totoc_1" intLanes=":center_3_0 :center_10_0 :center_16_0 :center_16_1"/>
    <junction id=":center_24_0" type="internal" x="100.00" y="96.27" incLanes=":center_13_0 totoc_0 totoc_1" intLanes=":center_0_0 :center_1_0 :center_1_1 :center_6_0 :center_6_1 :center_8_0 :center_16_0 :center_16_1 :center_18_0 :center_19_0"/>
    <junction id=":center_25_0" type="internal" x="100.00" y="91.20" incLanes=":center_14_0 ltoc_0 rtoc_1 totoc_0 totoc_1" intLanes=":center_1_0 :center_1_1 :center_8_0 :center_15_0"/>
    <junction id=":center_26_0" type="internal" x="96.27" y="100.00" incLanes=":center_18_0 rtoc_0 rtoc_1" intLanes=":center_1_0 :center_1_1 :center_3_0 :center_4_0 :center_5_0 :center_6_0 :center_6_1 :center_11_0 :center_11_1 :center_13_0"/>
    <junction id=":center_27_0" type="internal" x="91.20" y="100.00" incLanes=":center_19_0 btoc_1 rtoc_0 rtoc_1 totoc_0" intLanes=":center_0_0 :center_6_0 :center_6_1 :center_13_0"/>

    <connection from="btoc" to="ctor" fromLane="0" toLane="0" via=":center_10_0" tl="center" linkIndex="10" dir="r" state="O"/>
    <connection from="btoc" to="ctot" fromLane="0" toLane="0" via=":center_11_0" tl="center" linkIndex="11" dir="s" state="O"/>
    <connection from="btoc" to="ctot" fromLane="1" toLane="1" via=":center_11_1" tl="center" linkIndex="12" dir="s" state="O"/>
    <connection from="btoc" to="ctol" fromLane="1" toLane="1" via=":center_13_0" tl="center" linkIndex="13" dir="l" state="o"/>
    <connection from="btoc" to="ctob" fromLane="1" toLane="1" via=":center_14_0" tl="center" linkIndex="14" dir="t" state="o"/>
    <connection from="ctob" to="btoc" fromLane="1" toLane="1" via=":bottom_0_0" dir="t" state="M"/>
    <connection from="ctol" to="ltoc" fromLane="1" toLane="1" via=":left_0_0" dir="t" state="M"/>
    <connection from="ctor" to="rtoc" fromLane="1" toLane="1" via=":right_0_0" dir="t" state="M"/>
    <connection from="ctot" to="totoc" fromLane="1" toLane="1" via=":top_0_0" dir="t" state="M"/>
    <connection from="ltoc" to="ctob" fromLane="0" toLane="0" via=":center_15_0" tl="center" linkIndex="15" dir="r" state="o"/>
    <connection from="ltoc" to="ctor" fromLane="0" toLane="0" via=":center_16_0" tl="center" linkIndex="16" dir="s" state="o"/>
    <connection from="ltoc" to="ctor" fromLane="1" toLane="1" via=":center_16_1" tl="center" linkIndex="17" dir="s" state="o"/>
    <connection from="ltoc" to="ctot" fromLane="1" toLane="1" via=":center_18_0" tl="center" linkIndex="18" dir="l" state="o"/>
    <connection from="ltoc" to="ctol" fromLane="1" toLane="1" via=":center_19_0" tl="center" linkIndex="19" dir="t" state="o"/>
    <connection from="rtoc" to="ctot" fromLane="0" toLane="0" via=":center_5_0" tl="center" linkIndex="5" dir="r" state="o"/>
    <connection from="rtoc" to="ctol" fromLane="0" toLane="0" via=":center_6_0" tl="center" linkIndex="6" dir="s" state="o"/>
    <connection from="rtoc" to="ctol" fromLane="1" toLane="1" via=":center_6_1" tl="center" linkIndex="7" dir="s" state="o"/>
    <connection from="rtoc" to="ctob" fromLane="1" toLane="1" via=":center_8_0" tl="center" linkIndex="8" dir="l" state="o"/>
    <connection from="rtoc" to="ctor" fromLane="1" toLane="1" via=":center_9_0" tl="center" linkIndex="9" dir="t" state="o"/>
    <connection from="totoc" to="ctol" fromLane="0" toLane="0" via=":center_0_0" tl="center" linkIndex="0" dir="r" state="O"/>
    <connection from="totoc" to="ctob" fromLane="0" toLane="0" via=":center_1_0" tl="center" linkIndex="1" dir="s" state="O"/>
    <connection from="totoc" to="ctob" fromLane="1" toLane="1" via=":center_1_1" tl="center" linkIndex="2" dir="s" state="O"/>
    <connection from="totoc" to="ctor" fromLane="1" toLane="1" via=":center_3_0" tl="center" linkIndex="3" dir="l" state="o"/>
    <connection from="totoc" to="ctot" fromLane="1" toLane="1" via=":center_4_0" tl="center" linkIndex="4" dir="t" state="o"/>

    <connection from=":bottom_0" to="btoc" fromLane="0" toLane="1" dir="t" state="M"/>
    <connection from=":center_0" to="ctol" fromLane="0" toLane="0" dir="r" state="M"/>
    <connection from=":center_1" to="ctob" fromLane="0" toLane="0" dir="s" state="M"/>
    <connection from=":center_1" to="ctob" fromLane="1" toLane="1" dir="s" state="M"/>
    <connection from=":center_3" to="ctor" fromLane="0" toLane="1" via=":center_20_0" dir="l" state="m"/>
    <connection from=":center_20" to="ctor" fromLane="0" toLane="1" dir="l" state="M"/>
    <connection from=":center_4" to="ctot" fromLane="0" toLane="1" via=":center_21_0" dir="t" state="m"/>
    <connection from=":center_21" to="ctot" fromLane="0" toLane="1" dir="t" state="M"/>
    <connection from=":center_5" to="ctot" fromLane="0" toLane="0" dir="r" state="M"/>
    <connection from=":center_6" to="ctol" fromLane="0" toLane="0" dir="s" state="M"/>
    <connection from=":center_6" to="ctol" fromLane="1" toLane="1" dir="s" state="M"/>
    <connection from=":center_8" to="ctob" fromLane="0" toLane="1" via=":center_22_0" dir="l" state="m"/>
    <connection from=":center_22" to="ctob" fromLane="0" toLane="1" dir="l" state="M"/>
    <connection from=":center_9" to="ctor" fromLane="0" toLane="1" via=":center_23_0" dir="t" state="m"/>
    <connection from=":center_23" to="ctor" fromLane="0" toLane="1" dir="t" state="M"/>
    <connection from=":center_10" to="ctor" fromLane="0" toLane="0" dir="r" state="M"/>
    <connection from=":center_11" to="ctot" fromLane="0" toLane="0" dir="s" state="M"/>
    <connection from=":center_11" to="ctot" fromLane="1" toLane="1" dir="s" state="M"/>
    <connection from=":center_13" to="ctol" fromLane="0" toLane="1" via=":center_24_0" dir="l" state="m"/>
    <connection from=":center_24" to="ctol" fromLane="0" toLane="1" dir="l" state="M"/>
    <connection from=":center_14" to="ctob" fromLane="0" toLane="1" via=":center_25_0" dir="t" state="m"/>
    <connection from=":center_25" to="ctob" fromLane="0" toLane="1" dir="t" state="M"/>
    <connection from=":center_15" to="ctob" fromLane="0" toLane="0" dir="r" state="M"/>
    <connection from=":center_16" to="ctor" fromLane="0" toLane="0" dir="s" state="M"/>
    <connection from=":center_16" to="ctor" fromLane="1" toLane="1" dir="s" state="M"/>
    <connection from=":center_18" to="ctot" fromLane="0" toLane="1" via=":center_26_0" dir="l" state="m"/>
    <connection from=":center_26" to="ctot" fromLane="0" toLane="1" dir="l" state="M"/>
    <connection from=":center_19" to="ctol" fromLane="0" toLane="1" via=":center_27_0" dir="t" state="m"/>
    <connection from=":center_27" to="ctol" fromLane="0" toLane="1" dir="t" state="M"/>
    <connection from=":left_0" to="ltoc" fromLane="0" toLane="1" dir="t" state="M"/>
    <connection from=":right_0" to="rtoc" fromLane="0" toLane="1" dir="t" state="M"/>
    <connection from=":top_0" to="totoc" fromLane="0" toLane="1" dir="t" state="M"/>

</net>
