<?xml version="1.0" encoding="UTF-8"?>
<types>
   <type id="a" numLanes="2" />
</types>
