<?xml version="1.0" encoding="UTF-8"?>
<nodes xmlns:xsi="http://www.w3.org/2001/XMLSchema-instance" xsi:noNamespaceSchemaLocation="http://sumo.dlr.de/xsd/nodes_file.xsd">
    <node id="left" x="0.0" y="0.0" />
    <node id="center" x="100.0" y="0.0" type="traffic_light"/>
    <node id="right" x="200.0" y="0.0" />
    <node id="top" x="100.0" y="100.0" />
    <node id="bottom" x="100.0" y="-100.0" />


	
</nodes>
