<?xml version="1.0" encoding="UTF-8"?>

<!-- generated on Thu Jul 25 12:52:09 2019 by SUMO duarouter Version 0.32.0
<?xml version="1.0" encoding="UTF-8"?>

<configuration xmlns:xsi="http://www.w3.org/2001/XMLSchema-instance" xsi:noNamespaceSchemaLocation="http://sumo.dlr.de/xsd/duarouterConfiguration.xsd">

    <input>
        <net-file value="b4atom.net.xml"/>
        <route-files value="trips.trips.xml"/>
    </input>

    <output>
        <output-file value="atom.rou.xml"/>
        <alternatives-output value="atom.rou.alt.xml"/>
    </output>

    <processing>
        <ignore-errors value="true"/>
    </processing>

    <time>
        <begin value="0"/>
        <end value="3600"/>
    </time>

    <report>
        <no-warnings value="true"/>
        <no-step-log value="true"/>
    </report>

</configuration>
-->

<routes xmlns:xsi="http://www.w3.org/2001/XMLSchema-instance" xsi:noNamespaceSchemaLocation="http://sumo.dlr.de/xsd/routes_file.xsd">
    <vehicle id="0" depart="0.00">
        <route edges="98106800#0 98106800#1 424998855 98289628 6012980 543564865#0 543564865#1 543564865#2 424998868#1 424998869#0 424998869#1 424998869#2 452791121 98289550#0 98289550#1 543564866#0 543564866#1 543564866#2 543564866#3 543564866#4 195059438#0 195059438#1 195059438#2 195059438#3 130599637#0 130599637#1 130599637#2"/>
    </vehicle>
    <vehicle id="1" depart="1.00">
        <route edges="543564866#2 543564866#3 543564866#4 6005854#0 6005854#1 6005854#2 6005854#3 6005854#4 6005854#5 -6009121#2 -6013203"/>
    </vehicle>
    <vehicle id="2" depart="2.00">
        <route edges="6011099#0 6011099#1 6011099#2 6011099#3 6011099#4 132521459#0 132521459#1 132521459#2 6006372#0 6006372#1 6006372#2 26312911#0"/>
    </vehicle>
    <vehicle id="3" depart="3.00">
        <route edges="279669731#0 279669731#1 279669731#2 279669731#3 186672434#0 186672434#1 186672434#2 186672434#3 186672434#4 98144349#0 98144349#1 98144349#2 6023074#0 6023074#1 425182771#1 98214830#0 98214830#1 98214830#2 98214830#3 424998845#1 195773995#0 195773995#1 546911819 98166085 98214823 546911818 425182283#0 425182283#1 424997823#1"/>
    </vehicle>
    <vehicle id="4" depart="4.00">
        <route edges="547727934#2 547727934#3 130599629#0 130599629#1 424998847#1 186672434#0 186672434#1 186672434#2 186672434#3 186672434#4 6005744#0 6005744#1 6005744#2 6005744#3 424998858#4"/>
    </vehicle>
    <vehicle id="5" depart="5.00">
        <route edges="-6012714#1 6012714#1 -6009121#3 -6009121#2 -6009121#1 -6009121#0 543564865#1 543564865#2 424998868#1"/>
    </vehicle>
    <vehicle id="6" depart="6.00">
        <route edges="132521459#2 6006372#0 6006372#1 6006372#2 26312911#0 26312911#1 26312911#2 173867943#0 173867943#1 173867943#2 173867943#3 98214830#0 98214830#1 98214830#2 98214830#3 424998845#1 195773995#0 195773995#1 546911819 6012980 543564865#0 6009121#0 -107438763#1"/>
    </vehicle>
    <vehicle id="7" depart="7.00">
        <route edges="132521364 453653108 116534597#1 98106800#0 98106800#1 424998855 98289628 6012980 6005739#0 6005739#1 98144277#0 98144277#1 98144277#2 98144277#3 98144277#4 424998858#4 424998858#5 424998858#6 547727934#1"/>
    </vehicle>
    <vehicle id="8" depart="8.00">
        <route edges="424998847#1 186672434#0 186672434#1 186672434#2 186672434#3 186672434#4 6005744#0 6005744#1 6005744#2 6005744#3 424998858#4 424998858#5 424998858#6 547727934#1 547727934#2 547727934#3 501503721#0 501503721#1 424998859#0 424998859#1 192572987#0 192572987#1 192572987#2 98289640#0 98289640#1 452791122 130599634#0 130599634#1 452791121 98289550#0 98289550#1 543564866#0 543564866#1 543564866#2 543564866#3 543564866#4 6005854#0 6005854#1 6005854#2 6005854#3 6005854#4 6005854#5"/>
    </vehicle>
    <vehicle id="9" depart="9.00">
        <route edges="423861664 -423861664 -543578050"/>
    </vehicle>
    <vehicle id="10" depart="10.00">
        <route edges="130599634#0 130599634#1 452791121 98289550#0 98289550#1 543564866#0 543564866#1 543564866#2 543564866#3 543564866#4 195059438#0 195059438#1 195059438#2 195059438#3 130599637#0"/>
    </vehicle>
    <vehicle id="11" depart="11.00">
        <route edges="107438763#4 -107438763#4 -107438763#3 -107438763#2 -107438763#1 -107438763#0 -98106788#1 -98106788#0 -116534597#1"/>
    </vehicle>
    <vehicle id="12" depart="12.00">
        <route edges="132521459#1 132521459#2 6006372#0 6006372#1 6006372#2 196920662#0 196920662#1 196920662#2 543718718#1 278419653#0 278419653#1 278419655 132521364 453653108 116534597#1 98106800#0"/>
    </vehicle>
    <vehicle id="13" depart="13.00">
        <route edges="6005854#6 425182283#0 6012714#0 6012714#1"/>
    </vehicle>
    <vehicle id="14" depart="14.00">
        <route edges="424998869#1 -424998869#1 -424998869#0 500547923 130599627#0 130599627#1 98144196#0 98144196#1 98144196#2 98144196#3 98144196#4 98144196#5 98144335#0 98144335#1"/>
    </vehicle>
    <vehicle id="15" depart="15.00">
        <route edges="6008581#0 6008581#1 6008581#2 192572987#0 192572987#1 192572987#2 22775635#0 22775635#1 22775635#2 22775635#3 98144288#0 98144288#1 98144288#2 98144288#3 98144288#4 130599629#0 130599629#1 424998847#1 186672434#0 186672434#1 186672434#2 186672434#3"/>
    </vehicle>
    <vehicle id="18" depart="18.00">
        <route edges="192572987#0 192572987#1 192572987#2 22775635#0 22775635#1 22775635#2 22775635#3 98144196#0 98144196#1 98144196#2 98144196#3 98144196#4 98144196#5 98144335#0 98144335#1 98144335#2 11961377#0 11961377#1 424998862#1 424998862#2 53395343#0 53395343#1 53395343#2 98289502#0 98289502#1"/>
    </vehicle>
    <vehicle id="20" depart="20.00">
        <route edges="6003270#5 26312911#0 26312911#1 26312911#2 173867943#0 173867943#1 173867943#2 173867943#3 424998858#0 424998858#1 424998858#2 424998858#3 424998858#4 424998858#5 424998858#6 547727934#1 547727934#2 547727934#3 501503721#0 501503721#1 424998859#0 424998859#1 192572987#0 192572987#1 192572987#2 98289640#0 98289640#1 452791122 130599634#0 130599634#1 452791121 98289550#0 98289550#1 543564866#0 543564866#1 543564866#2 543564866#3 543564866#4 6005854#0 6005854#1 6005854#2"/>
    </vehicle>
    <vehicle id="21" depart="21.00">
        <route edges="98144196#4 98144196#5 98144335#0 98144335#1 98144335#2 195773995#0 195773995#1 546911819 6012980 543564865#0 543564865#1 543564865#2 424998868#1 424998869#0 424998869#1 424998869#2 452791121 98289550#0 98289550#1 -107438763#6 107438763#6"/>
    </vehicle>
    <vehicle id="22" depart="22.00">
        <route edges="132521459#0 132521459#1 132521459#2 6006372#0 6006372#1 6006372#2 26312911#0 26312911#1 26312911#2 173867943#0 173867943#1 173867943#2 173867943#3 98214830#0 98214830#1 98214830#2 98214830#3 424998845#1 195773995#0 195773995#1 546911819 6012980 543564865#0 543564865#1 543564865#2 424998868#1"/>
    </vehicle>
    <vehicle id="23" depart="23.00">
        <route edges="186672434#0 186672434#1 186672434#2 186672434#3 186672434#4 98144349#0 98144349#1 98144349#2 6011099#0 6011099#1 6011099#2 6011099#3 6011099#4 132521459#0 132521459#1 132521459#2 6006372#0 6006372#1 6006372#2 196920662#0 196920662#1 196920662#2 543718718#1 278419653#0 278419653#1 278419655 132521364"/>
    </vehicle>
    <vehicle id="24" depart="24.00">
        <route edges="196920662#0 196920662#1 196920662#2 543718718#1 278419653#0 278419653#1 278419655 132521406 543562162#1 98289543#0 98289543#1 98289543#2 204141565#0 204141565#1 543578051#0 543578051#1 543578053#1 500298765#0 500298765#1 425182772#0 425182772#1 132521459#0 132521459#1 132521459#2 6006372#0 6006372#1"/>
    </vehicle>
    <vehicle id="25" depart="25.00">
        <route edges="6023074#0 6023074#1 425182771#1 98214830#0 98214830#1 98214830#2 98214830#3 424998845#1 195773995#0 195773995#1 546911819 98166085 -98106788#1 -98106788#0 -98289551#1 -98289551#0 -192463113 -423861664"/>
    </vehicle>
    <vehicle id="27" depart="27.00">
        <route edges="130599634#0 130599634#1 452791121 98289550#0 98289550#1 543564866#0 543564866#1 543564866#2 543564866#3 543564866#4 6005854#0 6005854#1 6005854#2 6005854#3 6005854#4 6005854#5"/>
    </vehicle>
    <vehicle id="28" depart="28.00">
        <route edges="195248691 424998871#1 6023074#0 6023074#1 425182771#1 98214830#0 98214830#1 98214830#2 98214830#3 424998845#1 195773995#0 195773995#1 546911819 6012980 543564865#0 543564865#1 -109485094 98144196#2 98144196#3"/>
    </vehicle>
    <vehicle id="29" depart="29.00">
        <route edges="98144196#2 98144196#3 98144196#4 98144196#5 98144335#0 98144335#1 98144335#2 195773995#0 195773995#1 546911819 6012980 543564865#0 543564865#1 -109485094 109485094"/>
    </vehicle>
    <vehicle id="33" depart="33.00">
        <route edges="98144288#3 98144288#4 501503721#0 501503721#1 424998859#0 424998859#1 192572987#0 192572987#1 192572987#2 22775635#0 22775635#1 22775635#2 22775635#3 98144288#0 98144288#1"/>
    </vehicle>
    <vehicle id="34" depart="34.00">
        <route edges="6006372#1 6006372#2 26312911#0 26312911#1 26312911#2 173867943#0 173867943#1 173867943#2 173867943#3 98214830#0 98214830#1 98214830#2 98214830#3 424998845#1 195773995#0 195773995#1 546911819 98166085 98214823 546911818 425182283#0 425182283#1 424997823#1 98170420"/>
    </vehicle>
    <vehicle id="35" depart="35.00">
        <route edges="424998869#1 -424998869#1 -424998869#0 500547923 130599627#0 130599627#1 98144288#0 98144288#1 98144288#2 98144288#3 98144288#4 130599629#0 130599629#1 424998847#1"/>
    </vehicle>
    <vehicle id="36" depart="36.00">
        <route edges="424998859#0 424998859#1 192572987#0 192572987#1 192572987#2 22775635#0 22775635#1 22775635#2 22775635#3 98144196#0 98144196#1 98144196#2 98144196#3 98144196#4 98144196#5 98144335#0 98144335#1 98144335#2 195773995#0 195773995#1 546911819 6012980"/>
    </vehicle>
    <vehicle id="37" depart="37.00">
        <route edges="6008581#2 192572987#0 192572987#1 192572987#2 22775635#0 22775635#1 22775635#2 22775635#3 98144196#0 98144196#1 98144196#2 98144196#3 98144196#4 98144196#5 98144335#0 98144335#1 98144335#2 11961377#0 11961377#1 424998862#1 424998862#2 204141565#0 204141565#1 543578051#0 543578051#1 543578053#1 500298765#0 500298765#1 425182772#0 425182772#1 132521459#0 132521459#1 132521459#2 6006372#0 6006372#1 6006372#2 196920662#0 196920662#1"/>
    </vehicle>
    <vehicle id="38" depart="38.00">
        <route edges="195773995#0 195773995#1 546911819 98166085 -98106788#1 -98106788#0 98106800#0 98106800#1 98289543#0 98289543#1 98289543#2 204141565#0 204141565#1 543578051#0 543578051#1 543578053#1 500298765#0 500298765#1 425182772#0 425182772#1 132521459#0 132521459#1 132521459#2 6006372#0 6006372#1"/>
    </vehicle>
    <vehicle id="39" depart="39.00">
        <route edges="6006030 543571693#2 424998849#0 424998849#1 424998852#0 424998852#1 424998852#2 546911820#0 546911820#1 546911820#2 500547923 130599627#0 130599627#1 98144196#0 98144196#1 98144196#2 98144196#3 98144196#4 98144196#5 98144335#0 98144335#1 98144335#2 11961377#0 11961377#1 424998862#1 424998862#2 204141565#0 204141565#1 543578051#0 543578051#1 543578053#1 173867943#0 173867943#1 173867943#2 173867943#3 424998858#0 424998858#1 424998858#2"/>
    </vehicle>
    <vehicle id="40" depart="40.00">
        <route edges="547727934#2 547727934#3 130599629#0 130599629#1 424998847#1 186672434#0 186672434#1 186672434#2 186672434#3 186672434#4 98144349#0 98144349#1 98144349#2 6023074#0 6023074#1 425182771#1 98214830#0 98214830#1 98214830#2 98214830#3 424998845#1 195773995#0 195773995#1 546911819 98166085 -98106788#1 -98106788#0 -98289551#1 -98289551#0 98289624 98289538"/>
    </vehicle>
    <vehicle id="41" depart="41.00">
        <route edges="-6009121#3 6005854#6 69530870#0 69530870#1 98289551#0 98289551#1 98106800#0 98106800#1 98289543#0 98289543#1 98289543#2 204141565#0 204141565#1 543578051#0 543578051#1 543578053#1 173867943#0 173867943#1 173867943#2 173867943#3 424998858#0 424998858#1"/>
    </vehicle>
    <vehicle id="42" depart="42.00">
        <route edges="547727934#3 130599629#0 130599629#1 424998847#1 186672434#0 186672434#1 186672434#2 186672434#3 186672434#4 98144349#0 98144349#1 98144349#2 6023074#0 6023074#1 425182771#1 98214830#0 98214830#1 98214830#2 98214830#3 424998845#1"/>
    </vehicle>
    <vehicle id="43" depart="43.00">
        <route edges="6012980 543564865#0 6009121#0 6009121#1 -6013203 546911818 69530870#0 69530870#1 98289624 98289643 6006381"/>
    </vehicle>
    <vehicle id="44" depart="44.00">
        <route edges="98289550#0 98289550#1 -107438763#6 -107438763#5 -107438763#4 546911820#0 546911820#1 546911820#2"/>
    </vehicle>
    <vehicle id="45" depart="45.00">
        <route edges="-192463113 192463113 98289551#0 98289551#1 98106800#0 98106800#1 98289543#0 98289543#1 98289543#2 204141565#0 204141565#1 543578051#0"/>
    </vehicle>
    <vehicle id="46" depart="46.00">
        <route edges="98289543#2 204141565#0 204141565#1 543578051#0 543578051#1 543578053#1 500298765#0 500298765#1 425182772#0 425182772#1 132521459#0 132521459#1 132521459#2 6006372#0 6006372#1 -6006372#1"/>
    </vehicle>
    <vehicle id="47" depart="47.00">
        <route edges="98289628 6012980 543564865#0 543564865#1 543564865#2 424998868#1 424998869#0 424998869#1 424998869#2 452791121 98289550#0 98289550#1 543564866#0 543564866#1 543564866#2 543564866#3 543564866#4 195059438#0 195059438#1 195059438#2 195059438#3"/>
    </vehicle>
    <vehicle id="48" depart="48.00">
        <route edges="130599634#1 -424998869#2 -424998869#1 -424998869#0 500547923 130599627#0 130599627#1 98144288#0 98144288#1 98144288#2 98144288#3 98144288#4 501503721#0 501503721#1 424998859#0 424998859#1 192572987#0 192572987#1 192572987#2 98289640#0 98289640#1 452791122"/>
    </vehicle>
    <vehicle id="49" depart="49.00">
        <route edges="6005744#2 -6005744#2 -6005744#1 -6005744#0 98144349#0 98144349#1 98144349#2 6023074#0 6023074#1 425182771#1 98214830#0 98214830#1 98214830#2 98214830#3 424998845#1 195773995#0 195773995#1 546911819 98166085 -98106788#1 -98106788#0 -98289551#1 -98289551#0 98289624 98289538"/>
    </vehicle>
    <vehicle id="52" depart="52.00">
        <route edges="6005854#5 -6009121#2 -6009121#1 -6009121#0 543564865#1 -109485094 98144196#2 98144196#3 98144196#4 98144196#5 98144277#0 98144277#1 98144277#2 98144277#3 98144277#4 -6005744#3 -6005744#2 -6005744#1 -6005744#0 98144349#0 98144349#1 98144349#2 6011099#0 6011099#1 6011099#2 6011099#3"/>
    </vehicle>
    <vehicle id="53" depart="53.00">
        <route edges="6005744#0 -6005744#0 98144349#0 98144349#1 98144349#2 6023074#0 6023074#1 425182771#1 98214830#0 98214830#1 98214830#2 98214830#3 424998845#1 195773995#0 195773995#1 546911819 98166085 98214823 546911818 425182283#0 425182283#1 424997823#1 98170420"/>
    </vehicle>
    <vehicle id="54" depart="54.00">
        <route edges="188969439#0 188969439#1 22775635#0 22775635#1 22775635#2 22775635#3 98144196#0 98144196#1 98144196#2 98144196#3 98144196#4 98144196#5 98144335#0 98144335#1 98144335#2 195773995#0 195773995#1 546911819 98166085 -98106788#1 -98106788#0 -98289551#1 -98289551#0 -192463113 -423861664 423861664"/>
    </vehicle>
    <vehicle id="55" depart="55.00">
        <route edges="-6012714#1 6012714#1 -6009121#3 -6009121#2 -6009121#1 107438763#2 107438763#3 107438763#4 107438763#5 107438763#6 543564866#0 543564866#1 543564866#2 543564866#3 543564866#4 6005854#0 6005854#1 6005854#2 6005854#3 6005854#4 6005854#5"/>
    </vehicle>
    <vehicle id="56" depart="56.00">
        <route edges="-98289551#1 98289551#1 98106800#0 98106800#1 424998855 98289628 6012980 6005739#0 6005739#1 98144277#0 98144277#1 98144277#2 98144277#3 98144277#4 -6005744#3 -6005744#2 -6005744#1 -6005744#0 6005744#0"/>
    </vehicle>
    <vehicle id="57" depart="57.00">
        <route edges="543578051#0 543578051#1 543578053#1 173867943#0 173867943#1 173867943#2 173867943#3 98214830#0 98214830#1 98214830#2 98214830#3 424998845#1 195773995#0 195773995#1 546911819 98166085 -98106788#1 -98106788#0 -98289551#1"/>
    </vehicle>
    <vehicle id="58" depart="58.00">
        <route edges="6006372#0 6006372#1 6006372#2 26312911#0 26312911#1 26312911#2 173867943#0 173867943#1 173867943#2 173867943#3 424998858#0 424998858#1 424998858#2 424998858#3 424998858#4 424998858#5 424998858#6 547727934#1 547727934#2 547727934#3 501503721#0 501503721#1 424998859#0 424998859#1 192572987#0 192572987#1 192572987#2 98289640#0 98289640#1 452791122 130599634#0 130599634#1 452791121 98289550#0"/>
    </vehicle>
    <vehicle id="59" depart="59.00">
        <route edges="425182283#0 6012714#0 6012714#1 -6009121#3 -6009121#2 -6009121#1 -6009121#0 543564865#1 543564865#2 424998868#1 500547923 130599627#0 130599627#1 98144288#0"/>
    </vehicle>
    <vehicle id="60" depart="60.00">
        <route edges="424998858#6 547727934#1 547727934#2 547727934#3 130599629#0 130599629#1 424998847#1 186672434#0 186672434#1 186672434#2 186672434#3 186672434#4 98144349#0 98144349#1 98144349#2 6023074#0 6023074#1 425182771#1 98214830#0 98214830#1 98214830#2 98214830#3 424998845#1 195773995#0 195773995#1 546911819 98166085 -98106788#1 -98106788#0 98106800#0 98106800#1"/>
    </vehicle>
    <vehicle id="61" depart="61.00">
        <route edges="-98289551#1 98289551#1 98106788#0 98106788#1 107438763#0 107438763#1 107438763#2 107438763#3 107438763#4 107438763#5 107438763#6 543564866#0 543564866#1 543564866#2 543564866#3 543564866#4 6005854#0 6005854#1 6005854#2 6005854#3 424998852#0"/>
    </vehicle>
    <vehicle id="62" depart="62.00">
        <route edges="98289543#1 98289543#2 204141565#0 204141565#1 543578051#0 543578051#1 543578053#1 173867943#0 173867943#1 173867943#2 173867943#3 98214830#0 98214830#1 98214830#2 98214830#3 424998845#1 195773995#0 195773995#1 546911819 6012980 6005739#0"/>
    </vehicle>
    <vehicle id="63" depart="63.00">
        <route edges="24709593 175679292 423861664 192463113 98289551#0 98289551#1 98106800#0 98106800#1 424998855 98289628 6012980 6005739#0 6005739#1 98144335#0 98144335#1 98144335#2 195773995#0"/>
    </vehicle>
    <vehicle id="64" depart="64.00">
        <route edges="98144196#4 98144196#5 98144335#0 98144335#1 98144335#2 11961377#0 11961377#1 424998862#1 424998862#2 204141565#0 204141565#1 543578051#0 543578051#1 543578053#1 500298765#0 500298765#1 425182772#0 425182772#1 132521459#0 132521459#1 132521459#2 6006372#0 6006372#1 6006372#2 196920662#0 196920662#1 196920662#2 543718718#1 278419653#0 278419653#1 278419655 132521406"/>
    </vehicle>
    <vehicle id="65" depart="65.00">
        <route edges="6005854#5 6005854#6 69530870#0 69530870#1 98289551#0 98289551#1 98106800#0 98106800#1 98289543#0 98289543#1 98289543#2 204141565#0 204141565#1 543578051#0 543578051#1 543578053#1 500298765#0 500298765#1 425182772#0 425182772#1 132521459#0 132521459#1 132521459#2 6006372#0 6006372#1 6006372#2 196920662#0 196920662#1 196920662#2 543718718#1 278419653#0"/>
    </vehicle>
    <vehicle id="66" depart="66.00">
        <route edges="-6005744#0 98144349#0 98144349#1 98144349#2 6023074#0 6023074#1 425182771#1 98214830#0 98214830#1 98214830#2 98214830#3 424998845#1 195773995#0 195773995#1 546911819 98166085 98214823 546911818 425182283#0 6012714#0 6012714#1 -6012714#1"/>
    </vehicle>
    <vehicle id="72" depart="72.00">
        <route edges="196920662#1 196920662#2 543718718#1 278419653#0 278419653#1 278419655 132521406 543562162#1 424998855 98289628 6012980 543564865#0 543564865#1 543564865#2 424998868#1 500547923 130599627#0 130599627#1 98144288#0 98144288#1 98144288#2 98144288#3 98144288#4 501503721#0 501503721#1 424998859#0 424998859#1 192572987#0 192572987#1"/>
    </vehicle>
    <vehicle id="73" depart="73.00">
        <route edges="186672434#3 186672434#4 98144349#0 98144349#1 98144349#2 6023074#0 6023074#1 425182771#1 98214830#0 98214830#1 98214830#2 98214830#3 424998845#1 195773995#0 195773995#1 546911819 98166085 -98106788#1 -98106788#0 -98289551#1 -98289551#0 98289624 98289643"/>
    </vehicle>
    <vehicle id="74" depart="74.00">
        <route edges="424998852#1 424998852#2 546911820#0 546911820#1 546911820#2 500547923 130599627#0 130599627#1 98144196#0 98144196#1"/>
    </vehicle>
    <vehicle id="75" depart="75.00">
        <route edges="-6009121#0 543564865#1 543564865#2 424998868#1 500547923 130599627#0 130599627#1 98144288#0 98144288#1 98144288#2 98144288#3 98144288#4 130599629#0 130599629#1 424998847#1 72833939#0"/>
    </vehicle>
    <vehicle id="76" depart="76.00">
        <route edges="500547923 130599627#0 130599627#1 98144196#0 98144196#1 98144196#2 98144196#3 98144196#4 98144196#5 98144335#0 98144335#1 98144335#2 195773995#0 195773995#1 546911819 98166085 107438763#0 -107438763#0"/>
    </vehicle>
    <vehicle id="77" depart="77.00">
        <route edges="6005854#5 -6009121#2 -6009121#1 107438763#2 107438763#3 107438763#4 107438763#5 107438763#6 -107438763#6"/>
    </vehicle>
    <vehicle id="78" depart="78.00">
        <route edges="11961377#1 424998862#1 424998862#2 204141565#0 204141565#1 543578051#0 543578051#1 543578053#1 173867943#0 173867943#1 173867943#2"/>
    </vehicle>
    <vehicle id="79" depart="79.00">
        <route edges="6005854#3 424998852#0 424998852#1 424998852#2 -107438763#3 -107438763#2 -107438763#1 -107438763#0 -98106788#1 -98106788#0 98106800#0 98106800#1 424998855"/>
    </vehicle>
    <vehicle id="80" depart="80.00">
        <route edges="6005854#3 424998852#0 424998852#1 424998852#2 107438763#4 107438763#5 107438763#6 543564866#0 543564866#1 543564866#2 543564866#3 543564866#4 195059438#0 195059438#1 195059438#2"/>
    </vehicle>
    <vehicle id="81" depart="81.00">
        <route edges="424998859#0 424998859#1 192572987#0 192572987#1 192572987#2 22775635#0 22775635#1 22775635#2 22775635#3 98144196#0 98144196#1 98144196#2 98144196#3 98144196#4 98144196#5 98144335#0 98144335#1 98144335#2 11961377#0 11961377#1 424998862#1 424998862#2 53395343#0 53395343#1 53395343#2 98289502#0 98289502#1 98289502#2 98289502#3 98289502#4"/>
    </vehicle>
    <vehicle id="82" depart="82.00">
        <route edges="500547923 130599627#0 130599627#1 98144196#0 98144196#1 109485094 543564865#2 424998868#1 424998869#0 424998869#1 424998869#2 452791121 98289550#0 98289550#1 -107438763#6 -107438763#5 -107438763#4 -107438763#3 107438763#3"/>
    </vehicle>
    <vehicle id="84" depart="84.00">
        <route edges="98144196#3 98144196#4 98144196#5 98144335#0 98144335#1 98144335#2 195773995#0 195773995#1 546911819 6012980 543564865#0 543564865#1 543564865#2 424998868#1 500547923 130599627#0 130599627#1"/>
    </vehicle>
    <vehicle id="85" depart="85.00">
        <route edges="98106788#0 98106788#1 107438763#0 107438763#1 107438763#2 107438763#3 107438763#4 107438763#5 107438763#6 543564866#0 543564866#1 543564866#2 543564866#3 543564866#4 6005854#0 6005854#1"/>
    </vehicle>
    <vehicle id="86" depart="86.00">
        <route edges="130599634#1 -424998869#2 -424998869#1 -424998869#0 500547923 130599627#0 130599627#1 98144196#0 98144196#1 98144196#2 98144196#3 98144196#4 98144196#5 98144335#0 98144335#1 98144335#2 11961377#0 11961377#1 424998862#1 424998862#2 204141565#0 204141565#1 543578051#0 543578051#1 543578053#1 173867943#0 173867943#1 173867943#2 173867943#3"/>
    </vehicle>
    <vehicle id="88" depart="88.00">
        <route edges="501503721#0 501503721#1 424998859#0 424998859#1 192572987#0 192572987#1 192572987#2 22775635#0 22775635#1 22775635#2 22775635#3 98144196#0 98144196#1 98144196#2 98144196#3 98144196#4 98144196#5 98144335#0 98144335#1 98144335#2 195773995#0 195773995#1 546911819 98166085 -98106788#1 -98106788#0 98106800#0 98106800#1 424998855 98289628"/>
    </vehicle>
    <vehicle id="90" depart="90.00">
        <route edges="6009121#2 6009121#3 -6012714#1 -6012714#0 116545545 -116545544#0"/>
    </vehicle>
    <vehicle id="91" depart="91.00">
        <route edges="6011099#3 6011099#4 132521459#0 132521459#1 132521459#2 6006372#0 6006372#1 6006372#2 26312911#0 26312911#1 26312911#2 173867943#0 173867943#1 173867943#2 173867943#3 424998858#0 424998858#1 424998858#2 424998858#3 -6005744#3 -6005744#2 -6005744#1 -6005744#0 98144349#0 98144349#1 98144349#2 6023074#0 6023074#1 425182771#1"/>
    </vehicle>
    <vehicle id="92" depart="92.00">
        <route edges="-6006372#1 6006372#1 6006372#2 26312911#0 26312911#1 26312911#2 173867943#0 173867943#1 173867943#2 173867943#3 98214830#0 98214830#1 98214830#2 98214830#3 424998845#1 195773995#0 195773995#1 546911819 98166085 98214823 546911818 425182283#0 6012714#0 6012714#1 -6009121#3"/>
    </vehicle>
    <vehicle id="93" depart="93.00">
        <route edges="6005854#2 6005854#3 424998852#0 424998852#1 424998852#2 546911820#0 546911820#1 546911820#2 500547923 130599627#0 130599627#1 98144196#0 98144196#1 98144196#2 98144196#3 98144196#4 98144196#5 98144335#0 98144335#1 98144335#2 11961377#0 11961377#1 424998862#1 424998862#2 204141565#0 204141565#1 543578051#0 543578051#1 543578053#1 500298765#0 500298765#1 425182772#0 425182772#1 132521459#0 132521459#1 132521459#2 6006372#0 6006372#1 -6006372#1"/>
    </vehicle>
    <vehicle id="94" depart="94.00">
        <route edges="543571693#0 543571693#1 -6006030"/>
    </vehicle>
    <vehicle id="95" depart="95.00">
        <route edges="132521459#2 6006372#0 6006372#1 6006372#2 26312911#0 26312911#1 26312911#2 173867943#0 173867943#1 173867943#2 173867943#3 424998858#0 424998858#1 424998858#2 424998858#3 -6005744#3 -6005744#2 -6005744#1 -6005744#0 98144349#0"/>
    </vehicle>
    <vehicle id="96" depart="96.00">
        <route edges="24709593 175679292 423861664 192463113 98289551#0 98289551#1 98106800#0 98106800#1 424998855 98289628 6012980 543564865#0 543564865#1 543564865#2 424998868#1 500547923 130599627#0 130599627#1 98144288#0 98144288#1 98144288#2 98144288#3 98144288#4 130599629#0 130599629#1"/>
    </vehicle>
    <vehicle id="98" depart="98.00">
        <route edges="98144277#3 98144277#4 -6005744#3 -6005744#2 -6005744#1 -6005744#0 98144349#0 98144349#1 98144349#2 6023074#0 6023074#1 425182771#1 98214830#0 98214830#1 98214830#2 98214830#3 424998845#1"/>
    </vehicle>
    <vehicle id="99" depart="99.00">
        <route edges="6006381 192463113 98289551#0 98289551#1 98106800#0 98106800#1 424998855 98289628 6012980 543564865#0 543564865#1 543564865#2 424998868#1 500547923 130599627#0 130599627#1 98144288#0 98144288#1 98144288#2 98144288#3 98144288#4 130599629#0 130599629#1 424998847#1 72833939#0 72833939#1"/>
    </vehicle>
    <vehicle id="100" depart="100.00">
        <route edges="6005854#3 6005854#4 6005854#5 6005854#6 425182283#0"/>
    </vehicle>
    <vehicle id="101" depart="101.00">
        <route edges="-6013203 6013203 -6009121#1 -6009121#0 543564865#1 543564865#2 424998868#1 500547923 130599627#0 130599627#1 98144288#0 98144288#1 98144288#2 98144288#3 98144288#4 501503721#0 501503721#1 424998859#0 424998859#1 192572987#0 192572987#1 192572987#2 22775635#0 22775635#1 22775635#2 22775635#3"/>
    </vehicle>
    <vehicle id="102" depart="102.00">
        <route edges="-107438763#2 107438763#2 107438763#3 107438763#4 107438763#5 107438763#6 -107438763#6"/>
    </vehicle>
    <vehicle id="103" depart="103.00">
        <route edges="6005744#0 6005744#1 6005744#2 6005744#3 424998858#4 424998858#5 424998858#6 547727934#1 547727934#2 547727934#3 501503721#0 501503721#1 424998859#0 424998859#1 192572987#0 192572987#1 192572987#2 98289640#0 98289640#1 452791122 130599634#0 130599634#1 452791121 98289550#0 98289550#1"/>
    </vehicle>
    <vehicle id="104" depart="104.00">
        <route edges="-6006372#0 6006372#0 6006372#1 6006372#2 196920662#0 196920662#1 196920662#2 543718718#1 278419653#0 278419653#1 278419655 132521364 111081883 98289643 6006381"/>
    </vehicle>
    <vehicle id="106" depart="106.00">
        <route edges="188466265#0 188466265#1 6008581#0 6008581#1 6008581#2 192572987#0 192572987#1 192572987#2 22775635#0 22775635#1 22775635#2 22775635#3 98144196#0 98144196#1 98144196#2 98144196#3 98144196#4 98144196#5 98144335#0 98144335#1 98144335#2 195773995#0 195773995#1 546911819 98166085 -98106788#1 -98106788#0 -98289551#1 -98289551#0"/>
    </vehicle>
    <vehicle id="107" depart="107.00">
        <route edges="107438763#6 543564866#0 543564866#1 543564866#2 543564866#3 543564866#4 6005854#0 6005854#1 6005854#2 6005854#3 6005854#4 6005854#5 6005854#6"/>
    </vehicle>
    <vehicle id="108" depart="108.00">
        <route edges="-6012714#1 6012714#1 -6009121#3 6005854#6 69530870#0 69530870#1 98289551#0 98289551#1 98106800#0"/>
    </vehicle>
    <vehicle id="109" depart="109.00">
        <route edges="6005744#1 -6005744#1 -6005744#0 98144349#0 98144349#1 98144349#2 6023074#0 6023074#1 425182771#1 98214830#0 98214830#1 98214830#2 98214830#3 424998845#1 195773995#0 195773995#1 546911819 98166085 98214823 546911818 425182283#0 6012714#0 6012714#1"/>
    </vehicle>
    <vehicle id="110" depart="110.00">
        <route edges="546911819 6012980 543564865#0 543564865#1 543564865#2 424998868#1 500547923 130599627#0 130599627#1 98144288#0 98144288#1 98144288#2 98144288#3 98144288#4 130599629#0 130599629#1 424998847#1 186672434#0"/>
    </vehicle>
    <vehicle id="111" depart="111.00">
        <route edges="6009121#1 -6009121#1 -107438763#1 -107438763#0 -98106788#1 -98106788#0 98106800#0 98106800#1 98289543#0 98289543#1 98289543#2 204141565#0 204141565#1 543578051#0 543578051#1 543578053#1 500298765#0 500298765#1 425182772#0 425182772#1 132521459#0 132521459#1 132521459#2 98102303"/>
    </vehicle>
    <vehicle id="112" depart="112.00">
        <route edges="-109485094 98144196#2 98144196#3 98144196#4 98144196#5 98144335#0 98144335#1 98144335#2 11961377#0 11961377#1 424998862#1 424998862#2 204141565#0 204141565#1 543578051#0 543578051#1 543578053#1 500298765#0 500298765#1 425182772#0 425182772#1 132521459#0 132521459#1 132521459#2 6006372#0 -6006372#0"/>
    </vehicle>
    <vehicle id="113" depart="113.00">