<additional >

<edgeData id="measure1" file="output.xml"/>

</additional>

