<additional >

<edgeData id="measure1" file="outputatom3_0_1.xml"/>

</additional>

