<?xml version="1.0" encoding="UTF-8"?>

<!-- generated on 2018년 08월 06일 (월) 오후 06시 06분 54초 by Netedit Version 0.32.0
<?xml version="1.0" encoding="UTF-8"?>

<configuration xmlns:xsi="http://www.w3.org/2001/XMLSchema-instance" xsi:noNamespaceSchemaLocation="http://sumo.dlr.de/xsd/netconvertConfiguration.xsd">

    <input>
        <sumo-net-file value="b4.net.xml"/>
    </input>

    <output>
        <output-file value="b4.net.xml"/>
    </output>

    <processing>
        <no-turnarounds value="true"/>
        <offset.disable-normalization value="true"/>
        <lefthand value="false"/>
        <junctions.corner-detail value="0"/>
        <rectangular-lane-cut value="false"/>
        <walkingareas value="false"/>
    </processing>

    <visualisation>
        <registry-viewport value="true"/>
    </visualisation>

</configuration>
-->

<net version="0.27" xmlns:xsi="http://www.w3.org/2001/XMLSchema-instance" xsi:noNamespaceSchemaLocation="http://sumo.dlr.de/xsd/net_file.xsd">

    <location netOffset="-360493.61,-4349499.94" convBoundary="2.74,166.71,1085.89,1100.63" origBoundary="-76.664154,39.275426,-76.594310,39.325890" projParameter="+proj=utm +zone=18 +ellps=WGS84 +datum=WGS84 +units=m +no_defs"/>

    <type id="highway.bridleway" priority="1" numLanes="1" speed="2.78" allow="pedestrian" oneway="1" width="2.00"/>
    <type id="highway.bus_guideway" priority="1" numLanes="1" speed="8.33" allow="bus" oneway="1"/>
    <type id="highway.cycleway" priority="1" numLanes="1" speed="5.56" allow="bicycle" oneway="0" width="1.00"/>
    <type id="highway.footway" priority="1" numLanes="1" speed="2.78" allow="pedestrian" oneway="1" width="2.00"/>
    <type id="highway.ford" priority="1" numLanes="1" speed="2.78" allow="army" oneway="0"/>
    <type id="highway.living_street" priority="3" numLanes="1" speed="2.78" disallow="tram rail_urban rail rail_electric ship" oneway="0"/>
    <type id="highway.motorway" priority="13" numLanes="2" speed="44.44" allow="private emergency authority army vip passenger hov taxi bus coach delivery truck trailer motorcycle evehicle custom1 custom2" oneway="1"/>
    <type id="highway.motorway_link" priority="12" numLanes="1" speed="22.22" allow="private emergency authority army vip passenger hov taxi bus coach delivery truck trailer motorcycle evehicle custom1 custom2" oneway="1"/>
    <type id="highway.path" priority="1" numLanes="1" speed="2.78" allow="bicycle pedestrian" oneway="1" width="2.00"/>
    <type id="highway.pedestrian" priority="1" numLanes="1" speed="2.78" allow="pedestrian" oneway="1" width="2.00"/>
    <type id="highway.primarr" priority="9" numLanes="2" speed="27.78" disallow="tram rail_urban rail rail_electric ship" oneway="0"/>
    <type id="highway.primarr_link" priority="8" numLanes="1" speed="22.22" disallow="tram rail_urban rail rail_electric ship" oneway="0"/>
    <type id="highway.raceway" priority="14" numLanes="2" speed="83.33" allow="vip" oneway="0"/>
    <type id="highway.residential" priority="4" numLanes="1" speed="13.89" disallow="tram rail_urban rail rail_electric ship" oneway="0"/>
    <type id="highway.secondarr" priority="7" numLanes="2" speed="27.78" disallow="tram rail_urban rail rail_electric ship" oneway="0"/>
    <type id="highway.secondarr_link" priority="6" numLanes="1" speed="22.22" disallow="tram rail_urban rail rail_electric ship" oneway="0"/>
    <type id="highway.service" priority="2" numLanes="1" speed="5.56" allow="delivery bicycle pedestrian" oneway="0"/>
    <type id="highway.services" priority="1" numLanes="1" speed="8.33" disallow="tram rail_urban rail rail_electric ship" oneway="0"/>
    <type id="highway.stairs" priority="1" numLanes="1" speed="1.39" allow="pedestrian" oneway="1" width="2.00"/>
    <type id="highway.step" priority="1" numLanes="1" speed="1.39" allow="pedestrian" oneway="1" width="2.00"/>
    <type id="highway.steps" priority="1" numLanes="1" speed="1.39" allow="pedestrian" oneway="1" width="2.00"/>
    <type id="highway.tertiarr" priority="6" numLanes="1" speed="22.22" disallow="tram rail_urban rail rail_electric ship" oneway="0"/>
    <type id="highway.tertiarr_link" priority="5" numLanes="1" speed="22.22" disallow="tram rail_urban rail rail_electric ship" oneway="0"/>
    <type id="highway.track" priority="1" numLanes="1" speed="5.56" disallow="tram rail_urban rail rail_electric ship" oneway="0"/>
    <type id="highway.trunk" priority="11" numLanes="2" speed="27.78" disallow="tram rail_urban rail rail_electric bicycle pedestrian ship" oneway="0"/>
    <type id="highway.trunk_link" priority="10" numLanes="1" speed="22.22" disallow="tram rail_urban rail rail_electric bicycle pedestrian ship" oneway="0"/>
    <type id="highway.unclassified" priority="5" numLanes="1" speed="13.89" disallow="tram rail_urban rail rail_electric ship" oneway="0"/>
    <type id="highway.unsurfaced" priority="1" numLanes="1" speed="8.33" disallow="tram rail_urban rail rail_electric ship" oneway="0"/>
    <type id="railway.light_rail" priority="15" numLanes="1" speed="27.78" allow="rail_urban" oneway="1"/>
    <type id="railway.preserved" priority="15" numLanes="1" speed="27.78" allow="rail" oneway="1"/>
    <type id="railway.rail" priority="15" numLanes="1" speed="83.33" allow="rail rail_electric" oneway="1"/>
    <type id="railway.subway" priority="15" numLanes="1" speed="27.78" allow="rail_urban" oneway="1"/>
    <type id="railway.tram" priority="15" numLanes="1" speed="13.89" allow="tram" oneway="1"/>

    <edge id=":106717288_0" function="internal">
        <lane id=":106717288_0_0" index="0" allow="bus bicycle" speed="13.41" length="3.30" shape="466.41,653.89 466.80,654.30 467.62,654.24 468.61,654.00 469.50,653.87"/>
    </edge>
    <edge id=":106717288_1" function="internal">
        <lane id=":106717288_1_0" index="0" disallow="tram rail_urban rail rail_electric ship" speed="13.41" length="4.86" shape="466.41,653.89 466.72,655.28 467.32,656.29 468.19,656.92 469.35,657.17"/>
    </edge>
    <edge id=":106717288_2" function="internal">
        <lane id=":106717288_2_0" index="0" disallow="tram rail_urban rail rail_electric ship" speed="13.41" length="8.05" shape="466.41,653.89 466.68,656.49 466.80,658.28 466.80,660.08 466.69,662.69"/>
        <lane id=":106717288_2_1" index="1" disallow="tram rail_urban rail rail_electric ship" speed="13.41" length="8.05" shape="463.13,654.25 463.39,656.70 463.50,658.38 463.50,660.07 463.39,662.54"/>
        <lane id=":106717288_2_2" index="2" disallow="tram rail_urban rail rail_electric ship" speed="13.41" length="8.05" shape="459.85,654.60 460.09,656.90 460.20,658.48 460.19,660.07 460.10,662.38"/>
        <lane id=":106717288_2_3" index="3" disallow="tram rail_urban rail rail_electric ship" speed="13.41" length="8.05" shape="456.57,654.96 456.79,657.11 456.89,658.59 456.89,660.07 456.80,662.23"/>
    </edge>
    <edge id=":106717288_6" function="internal">
        <lane id=":106717288_6_0" index="0" allow="bus bicycle" speed="13.41" length="11.87" shape="457.63,653.40 469.50,653.87"/>
    </edge>
    <edge id=":106717288_7" function="internal">
        <lane id=":106717288_7_0" index="0" disallow="tram rail_urban rail rail_electric ship" speed="13.41" length="9.97" shape="457.63,653.40 458.87,654.00 459.69,655.69 460.10,658.49 460.10,662.38"/>
    </edge>
    <edge id=":106717288_8" function="internal">
        <lane id=":106717288_8_0" index="0" disallow="tram rail_urban rail rail_electric ship" speed="13.41" length="11.82" shape="457.53,656.70 469.35,657.17"/>
        <lane id=":106717288_8_1" index="1" disallow="tram rail_urban rail rail_electric ship" speed="13.41" length="11.82" shape="457.37,659.99 469.20,660.46"/>
        <lane id=":106717288_8_2" index="2" disallow="tram rail_urban rail rail_electric ship" speed="13.41" length="11.82" shape="457.27,663.29 469.06,663.76"/>
    </edge>
    <edge id=":106717288_11" function="internal">
        <lane id=":106717288_11_0" index="0" disallow="tram rail_urban rail rail_electric ship" speed="13.41" length="1.16" shape="457.27,663.29 456.80,662.23"/>
    </edge>
    <edge id=":1234772587_0" function="internal">
        <lane id=":1234772587_0_0" index="0" disallow="tram rail_urban rail rail_electric ship" speed="13.41" length="0.30" shape="473.72,519.05 473.70,519.32"/>
        <lane id=":1234772587_0_1" index="1" disallow="tram rail_urban rail rail_electric ship" speed="13.41" length="0.30" shape="470.43,518.81 470.41,519.09"/>
        <lane id=":1234772587_0_2" index="2" disallow="tram rail_urban rail rail_electric ship" speed="13.41" length="0.30" shape="467.14,518.56 467.11,518.87"/>
        <lane id=":1234772587_0_3" index="3" disallow="tram rail_urban rail rail_electric ship" speed="13.41" length="0.30" shape="463.85,518.31 463.82,518.64"/>
    </edge>
    <edge id=":1234772681_0" function="internal">
        <lane id=":1234772681_0_0" index="0" disallow="tram rail_urban rail rail_electric ship" speed="13.41" length="1.60" shape="327.67,644.44 327.69,644.35 327.71,644.29 327.71,644.22 327.72,644.13"/>
        <lane id=":1234772681_0_1" index="1" disallow="tram rail_urban rail rail_electric ship" speed="13.41" length="1.60" shape="330.87,645.24 330.94,644.96 330.98,644.77 331.00,644.58 331.01,644.29"/>
        <lane id=":1234772681_0_2" index="2" disallow="tram rail_urban rail rail_electric ship" speed="13.41" length="1.60" shape="334.08,646.04 334.19,645.58 334.25,645.26 334.28,644.93 334.31,644.46"/>
        <lane id=":1234772681_0_3" index="3" disallow="tram rail_urban rail rail_electric ship" speed="13.41" length="1.60" shape="337.28,646.84 337.43,646.19 337.52,645.74 337.57,645.29 337.61,644.62"/>
        <lane id=":1234772681_0_4" index="4" disallow="tram rail_urban rail rail_electric ship" speed="13.41" length="1.60" shape="340.48,647.64 340.68,646.81 340.79,646.23 340.85,645.64 340.90,644.79"/>
    </edge>
    <edge id=":1234772787_0" function="internal">
        <lane id=":1234772787_0_0" index="0" allow="bus bicycle" speed="13.41" length="1.37" shape="445.58,753.85 444.92,754.00 444.46,754.08 444.00,754.10 443.32,754.08"/>
        <lane id=":1234772787_0_1" index="1" disallow="tram rail_urban rail rail_electric ship" speed="13.41" length="1.37" shape="444.79,750.64 444.39,750.74 444.12,750.79 443.84,750.80 443.43,750.79"/>
        <lane id=":1234772787_0_2" index="2" disallow="tram rail_urban rail rail_electric ship" speed="13.41" length="1.37" shape="443.99,747.44 443.86,747.47 443.77,747.49 443.68,747.49 443.55,747.49"/>
    </edge>
    <edge id=":1234772948_0" function="internal">
        <lane id=":1234772948_0_0" index="0" disallow="tram rail_urban rail rail_electric ship" speed="13.41" length="0.32" shape="335.83,485.76 335.84,485.55"/>
        <lane id=":1234772948_0_1" index="1" disallow="tram rail_urban rail rail_electric ship" speed="13.41" length="0.32" shape="339.13,485.96 339.14,485.70"/>
        <lane id=":1234772948_0_2" index="2" disallow="tram rail_urban rail rail_electric ship" speed="13.41" length="0.32" shape="342.42,486.17 342.44,485.85"/>
        <lane id=":1234772948_0_3" index="3" disallow="tram rail_urban rail rail_electric ship" speed="13.41" length="0.32" shape="345.71,486.37 345.73,486.00"/>
        <lane id=":1234772948_0_4" index="4" disallow="tram rail_urban rail rail_electric ship" speed="13.41" length="0.32" shape="349.01,486.58 349.03,486.15"/>
    </edge>
    <edge id=":1313588074_0" function="internal">
        <lane id=":1313588074_0_0" index="0" disallow="tram rail_urban rail rail_electric ship" speed="13.41" length="0.29" shape="464.71,704.09 464.70,704.33"/>
        <lane id=":1313588074_0_1" index="1" disallow="tram rail_urban rail rail_electric ship" speed="13.41" length="0.29" shape="461.42,703.93 461.40,704.21"/>
        <lane id=":1313588074_0_2" index="2" disallow="tram rail_urban rail rail_electric ship" speed="13.41" length="0.29" shape="458.12,703.77 458.11,704.09"/>
        <lane id=":1313588074_0_3" index="3" disallow="tram rail_urban rail rail_electric ship" speed="13.41" length="0.29" shape="454.82,703.62 454.81,703.96"/>
    </edge>
    <edge id=":1313603028_0" function="internal">
        <lane id=":1313603028_0_0" index="0" disallow="tram rail_urban rail rail_electric ship" speed="13.41" length="0.49" shape="1057.08,328.85 1057.74,328.88"/>
        <lane id=":1313603028_0_1" index="1" disallow="tram rail_urban rail rail_electric ship" speed="13.41" length="0.49" shape="1056.94,332.14 1057.53,332.18"/>
        <lane id=":1313603028_0_2" index="2" disallow="tram rail_urban rail rail_electric ship" speed="13.41" length="0.49" shape="1056.80,335.44 1057.32,335.47"/>
        <lane id=":1313603028_0_3" index="3" disallow="tram rail_urban rail rail_electric ship" speed="13.41" length="0.49" shape="1056.66,338.74 1057.11,338.76"/>
        <lane id=":1313603028_0_4" index="4" disallow="tram rail_urban rail rail_electric ship" speed="13.41" length="0.49" shape="1056.52,342.04 1056.90,342.06"/>
        <lane id=":1313603028_0_5" index="5" disallow="tram rail_urban rail rail_electric ship" speed="13.41" length="0.49" shape="1056.38,345.33 1056.69,345.35"/>
    </edge>
    <edge id=":1313606529_0" function="internal">
        <lane id=":1313606529_0_0" index="0" disallow="tram rail_urban rail rail_electric ship" speed="11.18" length="0.30" shape="753.51,710.08 753.50,710.39"/>
        <lane id=":1313606529_0_1" index="1" disallow="tram rail_urban rail rail_electric ship" speed="11.18" length="0.30" shape="750.21,709.99 750.21,710.29"/>
        <lane id=":1313606529_0_2" index="2" disallow="tram rail_urban rail rail_electric ship" speed="11.18" length="0.30" shape="746.92,709.90 746.91,710.19"/>
    </edge>
    <edge id=":1313606535_0" function="internal">
        <lane id=":1313606535_0_0" index="0" disallow="tram rail_urban rail rail_electric ship" speed="13.89" length="0.31" shape="821.05,712.46 821.04,712.76"/>
    </edge>
    <edge id=":1313606535_1" function="internal">
        <lane id=":1313606535_1_0" index="0" disallow="tram rail_urban rail rail_electric ship" speed="13.89" length="2.41" shape="821.05,712.46 820.20,713.67 819.36,714.06"/>
    </edge>
    <edge id=":1313606535_4" function="internal">
        <lane id=":1313606535_4_0" index="0" speed="13.89" length="2.41" shape="819.36,714.06 818.55,713.63 817.75,712.37"/>
    </edge>
    <edge id=":1313606535_2" function="internal">
        <lane id=":1313606535_2_0" index="0" disallow="tram rail_urban rail rail_electric ship" speed="13.89" length="0.29" shape="817.75,712.65 817.75,712.37"/>
    </edge>
    <edge id=":1313606535_3" function="internal">
        <lane id=":1313606535_3_0" index="0" disallow="tram rail_urban rail rail_electric ship" speed="13.89" length="2.41" shape="817.75,712.65 818.61,711.44 819.45,711.06"/>
    </edge>
    <edge id=":1313606535_5" function="internal">
        <lane id=":1313606535_5_0" index="0" speed="13.89" length="2.41" shape="819.45,711.06 820.26,711.50 821.04,712.76"/>
    </edge>
    <edge id=":1956791877_0" function="internal">
        <lane id=":1956791877_0_0" index="0" disallow="tram rail_urban rail rail_electric ship" speed="13.41" length="12.57" shape="583.32,315.55 595.71,315.72"/>
        <lane id=":1956791877_0_1" index="1" disallow="tram rail_urban rail rail_electric ship" speed="13.41" length="12.57" shape="583.24,318.85 595.72,319.02"/>
        <lane id=":1956791877_0_2" index="2" disallow="tram rail_urban rail rail_electric ship" speed="13.41" length="12.57" shape="583.17,322.15 595.74,322.32"/>
        <lane id=":1956791877_0_3" index="3" disallow="tram rail_urban rail rail_electric ship" speed="13.41" length="12.57" shape="583.09,325.45 595.75,325.62"/>
        <lane id=":1956791877_0_4" index="4" disallow="tram rail_urban rail rail_electric ship" speed="13.41" length="12.57" shape="583.01,328.74 595.76,328.92"/>
    </edge>
    <edge id=":1956791877_5" function="internal">
        <lane id=":1956791877_5_0" index="0" disallow="tram rail_urban rail rail_electric ship" speed="13.41" length="10.91" shape="583.01,328.74 587.25,329.04 590.27,329.71 592.06,330.74 592.62,332.13"/>
    </edge>
    <edge id=":1956791877_6" function="internal">
        <lane id=":1956791877_6_0" index="0" disallow="tram rail_urban rail rail_electric ship" speed="13.41" length="15.46" shape="586.02,331.93 586.74,327.74 588.60,324.74 591.60,322.94 595.74,322.32"/>
    </edge>
    <edge id=":1956791877_7" function="internal">
        <lane id=":1956791877_7_0" index="0" disallow="tram rail_urban rail rail_electric ship" speed="13.41" length="10.27" shape="589.32,332.03 589.80,329.24 591.03,327.24 593.01,326.03 595.75,325.62"/>
    </edge>
    <edge id=":1956791877_8" function="internal">
        <lane id=":1956791877_8_0" index="0" disallow="tram rail_urban rail rail_electric ship" speed="13.41" length="7.85" shape="589.32,332.03 589.76,330.68 590.98,329.71 592.98,329.13 595.76,328.92"/>
    </edge>
    <edge id=":1956791877_9" function="internal">
        <lane id=":1956791877_9_0" index="0" disallow="tram rail_urban rail rail_electric ship" speed="13.41" length="4.82" shape="589.32,332.03 590.18,330.82 591.02,330.43 591.83,330.87 592.62,332.13"/>
    </edge>
    <edge id=":1956791884_0" function="internal">
        <lane id=":1956791884_0_0" index="0" disallow="tram rail_urban rail rail_electric ship" speed="13.41" length="0.30" shape="752.87,319.96 753.12,319.97"/>
        <lane id=":1956791884_0_1" index="1" disallow="tram rail_urban rail rail_electric ship" speed="13.41" length="0.30" shape="752.76,323.26 753.03,323.27"/>
        <lane id=":1956791884_0_2" index="2" disallow="tram rail_urban rail rail_electric ship" speed="13.41" length="0.30" shape="752.64,326.55 752.94,326.56"/>
        <lane id=":1956791884_0_3" index="3" disallow="tram rail_urban rail rail_electric ship" speed="13.41" length="0.30" shape="752.53,329.85 752.85,329.86"/>
        <lane id=":1956791884_0_4" index="4" disallow="tram rail_urban rail rail_electric ship" speed="13.41" length="0.30" shape="752.41,333.15 752.76,333.16"/>
    </edge>
    <edge id=":1956800609_0" function="internal">
        <lane id=":1956800609_0_0" index="0" disallow="tram rail_urban rail rail_electric ship" speed="13.41" length="0.30" shape="701.22,318.34 701.54,318.35"/>
        <lane id=":1956800609_0_1" index="1" disallow="tram rail_urban rail rail_electric ship" speed="13.41" length="0.30" shape="701.12,321.64 701.43,321.65"/>
        <lane id=":1956800609_0_2" index="2" disallow="tram rail_urban rail rail_electric ship" speed="13.41" length="0.30" shape="701.03,324.94 701.33,324.94"/>
        <lane id=":1956800609_0_3" index="3" disallow="tram rail_urban rail rail_electric ship" speed="13.41" length="0.30" shape="700.94,328.23 701.23,328.24"/>
        <lane id=":1956800609_0_4" index="4" disallow="tram rail_urban rail rail_electric ship" speed="13.41" length="0.30" shape="700.84,331.53 701.12,331.54"/>
    </edge>
    <edge id=":2125977752_0" function="internal">
        <lane id=":2125977752_0_0" index="0" disallow="tram rail_urban rail rail_electric ship" speed="11.18" length="0.26" shape="643.86,584.97 643.84,585.23"/>
    </edge>
    <edge id=":2125977752_1" function="internal">
        <lane id=":2125977752_1_0" index="0" disallow="tram rail_urban rail rail_electric ship" speed="11.18" length="2.41" shape="643.86,584.97 642.97,586.16 642.13,586.53"/>
    </edge>
    <edge id=":2125977752_4" function="internal">
        <lane id=":2125977752_4_0" index="0" speed="11.18" length="2.41" shape="642.13,586.53 641.32,586.08 640.56,584.81"/>
    </edge>
    <edge id=":2125977752_2" function="internal">
        <lane id=":2125977752_2_0" index="0" disallow="tram rail_urban rail rail_electric ship" speed="11.18" length="0.31" shape="640.55,585.12 640.56,584.81"/>
    </edge>
    <edge id=":2125977752_3" function="internal">
        <lane id=":2125977752_3_0" index="0" disallow="tram rail_urban rail rail_electric ship" speed="11.18" length="2.41" shape="640.55,585.12 641.41,583.91 642.25,583.52"/>
    </edge>
    <edge id=":2125977752_5" function="internal">
        <lane id=":2125977752_5_0" index="0" speed="11.18" length="2.41" shape="642.25,583.52 643.06,583.96 643.84,585.23"/>
    </edge>
    <edge id=":2223844566_0" function="internal">
        <lane id=":2223844566_0_0" index="0" disallow="tram rail_urban rail rail_electric ship" speed="13.41" length="2.71" shape="323.05,743.17 323.19,740.52"/>
        <lane id=":2223844566_0_1" index="1" disallow="tram rail_urban rail rail_electric ship" speed="13.41" length="2.71" shape="326.35,743.33 326.49,740.64"/>
        <lane id=":2223844566_0_2" index="2" disallow="tram rail_urban rail rail_electric ship" speed="13.41" length="2.71" shape="329.64,743.54 329.79,740.77"/>
    </edge>
    <edge id=":2223844572_0" function="internal">
        <lane id=":2223844572_0_0" index="0" allow="bus bicycle" speed="13.41" length="3.00" shape="317.46,751.46 314.37,751.36"/>
        <lane id=":2223844572_0_1" index="1" disallow="tram rail_urban rail rail_electric ship" speed="13.41" length="3.00" shape="317.53,748.16 314.51,748.07"/>
        <lane id=":2223844572_0_2" index="2" disallow="tram rail_urban rail rail_electric ship" speed="13.41" length="3.00" shape="317.61,744.86 314.64,744.77"/>
        <lane id=":2223844572_0_3" index="3" disallow="tram rail_urban rail rail_electric ship" speed="13.41" length="3.00" shape="317.68,741.56 314.77,741.47"/>
    </edge>
    <edge id=":2223844574_0" function="internal">
        <lane id=":2223844574_0_0" index="0" allow="bus bicycle" speed="13.41" length="2.18" shape="335.53,751.98 333.35,751.90"/>
        <lane id=":2223844574_0_1" index="1" disallow="tram rail_urban rail rail_electric ship" speed="13.41" length="2.18" shape="335.65,748.68 333.47,748.61"/>
        <lane id=":2223844574_0_2" index="2" disallow="tram rail_urban rail rail_electric ship" speed="13.41" length="2.18" shape="335.77,745.38 333.58,745.31"/>
        <lane id=":2223844574_0_3" index="3" disallow="tram rail_urban rail rail_electric ship" speed="13.41" length="2.18" shape="335.88,742.09 333.70,742.01"/>
    </edge>
    <edge id=":2223844591_0" function="internal">
        <lane id=":2223844591_0_0" index="0" disallow="tram rail_urban rail rail_electric ship" speed="13.41" length="1.28" shape="462.61,753.07 462.85,753.61 462.97,753.99 463.02,754.39 463.03,754.98"/>
        <lane id=":2223844591_0_1" index="1" disallow="tram rail_urban rail rail_electric ship" speed="13.41" length="1.28" shape="459.62,754.46 459.69,754.62 459.72,754.73 459.73,754.85 459.73,755.03"/>
    </edge>
    <edge id=":2223844593_0" function="internal">
        <lane id=":2223844593_0_0" index="0" disallow="tram rail_urban rail rail_electric ship" speed="13.41" length="0.30" shape="320.73,757.04 320.74,756.74"/>
        <lane id=":2223844593_0_1" index="1" disallow="tram rail_urban rail rail_electric ship" speed="13.41" length="0.30" shape="324.02,757.20 324.04,756.90"/>
        <lane id=":2223844593_0_2" index="2" disallow="tram rail_urban rail rail_electric ship" speed="13.41" length="0.30" shape="327.32,757.36 327.34,757.06"/>
        <lane id=":2223844593_0_3" index="3" disallow="tram rail_urban rail rail_electric ship" speed="13.41" length="0.30" shape="330.62,757.52 330.63,757.22"/>
    </edge>
    <edge id=":2223844602_0" function="internal">
        <lane id=":2223844602_0_0" index="0" disallow="tram rail_urban rail rail_electric ship" speed="13.41" length="0.30" shape="566.55,753.71 566.56,753.41"/>
        <lane id=":2223844602_0_1" index="1" disallow="tram rail_urban rail rail_electric ship" speed="13.41" length="0.30" shape="569.85,753.84 569.86,753.54"/>
        <lane id=":2223844602_0_2" index="2" disallow="tram rail_urban rail rail_electric ship" speed="13.41" length="0.30" shape="573.14,753.98 573.15,753.68"/>
        <lane id=":2223844602_0_3" index="3" disallow="tram rail_urban rail rail_electric ship" speed="13.41" length="0.30" shape="576.44,754.11 576.45,753.81"/>
    </edge>
    <edge id=":2223844620_0" function="internal">
        <lane id=":2223844620_0_0" index="0" disallow="tram rail_urban rail rail_electric ship" speed="13.41" length="0.80" shape="447.84,758.98 447.74,759.19 447.69,759.35 447.67,759.51 447.67,759.75"/>
    </edge>
    <edge id=":2223844627_0" function="internal">
        <lane id=":2223844627_0_0" index="0" disallow="tram rail_urban rail rail_electric ship" speed="11.18" length="0.41" shape="643.75,761.12 643.76,761.53"/>
    </edge>
    <edge id=":2223844627_1" function="internal">
        <lane id=":2223844627_1_0" index="0" disallow="tram rail_urban rail rail_electric ship" speed="11.18" length="2.41" shape="643.75,761.12 642.99,762.40 642.19,762.85"/>
    </edge>
    <edge id=":2223844627_4" function="internal">
        <lane id=":2223844627_4_0" index="0" speed="11.18" length="2.41" shape="642.19,762.85 641.35,762.48 640.46,761.29"/>
    </edge>
    <edge id=":2223844627_2" function="internal">
        <lane id=":2223844627_2_0" index="0" disallow="tram rail_urban rail rail_electric ship" speed="11.18" length="0.13" shape="640.46,761.43 640.46,761.29"/>
    </edge>
    <edge id=":2223844627_3" function="internal">
        <lane id=":2223844627_3_0" index="0" disallow="tram rail_urban rail rail_electric ship" speed="11.18" length="2.41" shape="640.46,761.43 641.32,760.21 642.16,759.83"/>
    </edge>
    <edge id=":2223844627_5" function="internal">
        <lane id=":2223844627_5_0" index="0" speed="11.18" length="2.41" shape="642.16,759.83 642.97,760.27 643.76,761.53"/>
    </edge>
    <edge id=":2504064501_0" function="internal">
        <lane id=":2504064501_0_0" index="0" disallow="tram rail_urban rail rail_electric ship" speed="13.41" length="0.30" shape="917.70,460.91 917.39,460.91"/>
        <lane id=":2504064501_0_1" index="1" disallow="tram rail_urban rail rail_electric ship" speed="13.41" length="0.30" shape="917.73,457.61 917.43,457.61"/>
        <lane id=":2504064501_0_2" index="2" disallow="tram rail_urban rail rail_electric ship" speed="13.41" length="0.30" shape="917.77,454.31 917.47,454.31"/>
        <lane id=":2504064501_0_3" index="3" disallow="tram rail_urban rail rail_electric ship" speed="13.41" length="0.30" shape="917.80,451.01 917.51,451.01"/>
    </edge>
    <edge id=":2504064504_0" function="internal">
        <lane id=":2504064504_0_0" index="0" disallow="tram rail_urban rail rail_electric ship" speed="13.41" length="0.30" shape="919.43,325.11 919.75,325.12"/>
        <lane id=":2504064504_0_1" index="1" disallow="tram rail_urban rail rail_electric ship" speed="13.41" length="0.30" shape="919.32,328.41 919.63,328.42"/>
        <lane id=":2504064504_0_2" index="2" disallow="tram rail_urban rail rail_electric ship" speed="13.41" length="0.30" shape="919.22,331.71 919.52,331.72"/>
        <lane id=":2504064504_0_3" index="3" disallow="tram rail_urban rail rail_electric ship" speed="13.41" length="0.30" shape="919.12,335.00 919.41,335.01"/>
        <lane id=":2504064504_0_4" index="4" disallow="tram rail_urban rail rail_electric ship" speed="13.41" length="0.30" shape="919.01,338.30 919.29,338.31"/>
    </edge>
    <edge id=":2504064507_0" function="internal">
        <lane id=":2504064507_0_0" index="0" disallow="tram rail_urban rail rail_electric ship" speed="11.18" length="0.30" shape="926.21,408.76 926.22,408.46"/>
        <lane id=":2504064507_0_1" index="1" disallow="tram rail_urban rail rail_electric ship" speed="11.18" length="0.30" shape="929.50,408.86 929.51,408.56"/>
    </edge>
    <edge id=":267706615_0" function="internal">
        <lane id=":267706615_0_0" index="0" disallow="tram rail_urban rail rail_electric ship" speed="13.41" length="0.30" shape="808.61,321.62 808.92,321.63"/>
        <lane id=":267706615_0_1" index="1" disallow="tram rail_urban rail rail_electric ship" speed="13.41" length="0.30" shape="808.51,324.92 808.81,324.93"/>
        <lane id=":267706615_0_2" index="2" disallow="tram rail_urban rail rail_electric ship" speed="13.41" length="0.30" shape="808.41,328.22 808.71,328.22"/>
        <lane id=":267706615_0_3" index="3" disallow="tram rail_urban rail rail_electric ship" speed="13.41" length="0.30" shape="808.31,331.51 808.61,331.52"/>
        <lane id=":267706615_0_4" index="4" disallow="tram rail_urban rail rail_electric ship" speed="13.41" length="0.30" shape="808.21,334.81 808.50,334.82"/>
    </edge>
    <edge id=":288278866_0" function="internal">
        <lane id=":288278866_0_0" index="0" allow="bus bicycle" speed="13.41" length="15.31" shape="333.15,751.90 317.85,751.47"/>
    </edge>
    <edge id=":288278866_1" function="internal">
        <lane id=":288278866_1_0" index="0" disallow="tram rail_urban rail rail_electric ship" speed="13.41" length="12.33" shape="333.15,751.90 330.02,751.28 327.84,749.68 326.61,747.10 326.34,743.53"/>
    </edge>
    <edge id=":288278866_2" function="internal">
        <lane id=":288278866_2_0" index="0" disallow="tram rail_urban rail rail_electric ship" speed="13.41" length="15.39" shape="333.27,748.60 317.92,748.17"/>
        <lane id=":288278866_2_1" index="1" disallow="tram rail_urban rail rail_electric ship" speed="13.41" length="15.39" shape="333.38,745.30 318.00,744.87"/>
        <lane id=":288278866_2_2" index="2" disallow="tram rail_urban rail rail_electric ship" speed="13.41" length="15.39" shape="333.50,742.00 318.07,741.57"/>
    </edge>
    <edge id=":288278866_5" function="internal">
        <lane id=":288278866_5_0" index="0" disallow="tram rail_urban rail rail_electric ship" speed="13.41" length="4.24" shape="333.50,742.00 329.63,743.74"/>
    </edge>
    <edge id=":288278866_6" function="internal">
        <lane id=":288278866_6_0" index="0" allow="bus bicycle" speed="13.41" length="5.03" shape="320.84,754.68 320.71,753.30 320.17,752.31 319.22,751.70 317.85,751.47"/>
    </edge>
    <edge id=":288278866_7" function="internal">