<additional >

<edgeData id="measure1" file="long1.0fuzzyoutput.xml"/>

</additional>

