<additional >

<edgeData id="measure1" file="0.2atomoutput.xml"/>

</additional>

