<?xml version="1.0" encoding="UTF-8"?>
<!-- generated on 2019-10-11 16:04:38.696298 by $Id$
  options: -n dcDowntown.net.xml -o dcDowntown.trips.xml <doubleminus>route-file dcDowntown.rou.xml -p 0.2 <doubleminus>begin 0 <doubleminus>end 1000 <doubleminus>fringe-factor 0
-->
<routes xmlns:xsi="http://www.w3.org/2001/XMLSchema-instance" xsi:noNamespaceSchemaLocation="http://sumo.dlr.de/xsd/routes_file.xsd">
    <trip id="0" depart="0.00" from="297273915#2" to="466352084#0"/>
    <trip id="1" depart="0.20" from="296951209#1" to="-397316522#1"/>
    <trip id="2" depart="0.40" from="6062809#1" to="-202992522#1"/>
    <trip id="3" depart="0.60" from="537114618#3" to="397321703#0"/>
    <trip id="4" depart="0.80" from="146537585#0" to="590581686#0"/>
    <trip id="5" depart="1.00" from="-297254936#2" to="6061544#1"/>
    <trip id="6" depart="1.20" from="-6063023#0" to="-47920785#1"/>
    <trip id="7" depart="1.40" from="-308739814#1" to="112271634#2"/>
    <trip id="8" depart="1.60" from="548839845#0" to="6055187#2"/>
    <trip id="9" depart="1.80" from="297254936#1" to="397323193#0"/>
    <trip id="10" depart="2.00" from="-589551064#3" to="-297237155#1"/>
    <trip id="11" depart="2.20" from="130788207#11" to="542375108#5"/>
    <trip id="12" depart="2.40" from="590525653#0" to="397319286#0"/>
    <trip id="13" depart="2.60" from="481785919" to="-50431293"/>
    <trip id="14" depart="2.80" from="-673665486#2" to="130714996"/>
    <trip id="15" depart="3.00" from="6052442#2" to="-125568114#3"/>
    <trip id="16" depart="3.20" from="486641135#1" to="6059842#2"/>
    <trip id="17" depart="3.40" from="6062277#6" to="131052333"/>
    <trip id="18" depart="3.60" from="146537578#1" to="535521072#1"/>
    <trip id="19" depart="3.80" from="50511185" to="397327931"/>
    <trip id="20" depart="4.00" from="-346627395" to="297296751#0"/>
    <trip id="21" depart="4.20" from="50429518" to="-468423958"/>
    <trip id="22" depart="4.40" from="121980262#2" to="-6063018#2"/>
    <trip id="23" depart="4.60" from="50710195#0" to="50279569"/>
    <trip id="24" depart="4.80" from="131052420#2" to="-297254936#4"/>
    <trip id="25" depart="5.00" from="-49827343#3" to="396702127#2"/>
    <trip id="26" depart="5.20" from="509648666" to="590581675#2"/>
    <trip id="27" depart="5.40" from="-295725956" to="-575569267#13"/>
    <trip id="28" depart="5.60" from="108060074#5" to="6056201"/>
    <trip id="29" depart="5.80" from="296355738#0" to="354204820#0"/>
    <trip id="30" depart="6.00" from="50511187#7" to="347003227#0"/>
    <trip id="31" depart="6.20" from="6055962#0" to="296359781#0"/>
    <trip id="32" depart="6.40" from="296272891#1" to="-47920785#1"/>
    <trip id="33" depart="6.60" from="-175873836#1" to="347004689#5"/>
    <trip id="34" depart="6.80" from="6058412#1" to="-346627391#0"/>
    <trip id="35" depart="7.00" from="352412076" to="-6060793#1"/>
    <trip id="36" depart="7.20" from="-6055517#1" to="589539521#1"/>
    <trip id="37" depart="7.40" from="469159259" to="-6057552#3"/>
    <trip id="38" depart="7.60" from="50008445#0" to="450556654#0"/>
    <trip id="39" depart="7.80" from="48018642#0" to="346876683#0"/>
    <trip id="40" depart="8.00" from="296348848#1" to="126303355#1"/>
    <trip id="41" depart="8.20" from="-535489685#7" to="-112601548#1"/>
    <trip id="42" depart="8.40" from="-683232181#3" to="-397040420"/>
    <trip id="43" depart="8.60" from="-282170072#1" to="50524889#11"/>
    <trip id="44" depart="8.80" from="6062971#1" to="47916249"/>
    <trip id="45" depart="9.00" from="435134456#0" to="590525653#1"/>
    <trip id="46" depart="9.20" from="-6062206#2" to="352412093"/>
    <trip id="47" depart="9.40" from="-6054373#1" to="-126303361#7"/>
    <trip id="48" depart="9.60" from="-125568108#0" to="6063305#3"/>
    <trip id="49" depart="9.80" from="450556654#0" to="590581677#0"/>
    <trip id="50" depart="10.00" from="146537579#1" to="-397315035#2"/>
    <trip id="51" depart="10.20" from="297200808#3" to="296795214#3"/>
    <trip id="52" depart="10.40" from="-282170072#2" to="131052335#3"/>
    <trip id="53" depart="10.60" from="520537744" to="-468433808"/>
    <trip id="54" depart="10.80" from="202992520#5" to="297204276"/>
    <trip id="55" depart="11.00" from="49827343#2" to="696806634#2"/>
    <trip id="56" depart="11.20" from="6061323#2" to="-49827343#6"/>
    <trip id="57" depart="11.40" from="696063555" to="589905645#0"/>
    <trip id="58" depart="11.60" from="119971773#8" to="6056231#1"/>
    <trip id="59" depart="11.80" from="298814311#0" to="-434444693#0"/>
    <trip id="60" depart="12.00" from="6058296#0" to="-435137396#1"/>
    <trip id="61" depart="12.20" from="130908288#2" to="-347004689#3"/>
    <trip id="62" depart="12.40" from="6061087#0" to="-590581676#0"/>
    <trip id="63" depart="12.60" from="130889704#4" to="-193002132#1"/>
    <trip id="64" depart="12.80" from="125568108#6" to="74100353#2"/>
    <trip id="65" depart="13.00" from="50473176#0" to="6061868#0"/>
    <trip id="66" depart="13.20" from="296790090" to="575569267#4"/>
    <trip id="67" depart="13.40" from="130889702#3" to="-514433132#13"/>
    <trip id="68" depart="13.60" from="627179481" to="-6056237#18"/>
    <trip id="69" depart="13.80" from="50431293" to="508158270#3"/>
    <trip id="70" depart="14.00" from="6063023#4" to="6055028"/>
    <trip id="71" depart="14.20" from="130889721#6" to="130802360#1"/>
    <trip id="72" depart="14.40" from="-6055962#1" to="-346627397#1"/>
    <trip id="73" depart="14.60" from="347004689#4" to="121980337"/>
    <trip id="74" depart="14.80" from="238391743#1" to="296237525#0"/>
    <trip id="75" depart="15.00" from="436136927#0" to="589539536#0"/>
    <trip id="76" depart="15.20" from="-535558001" to="333922766#1"/>
    <trip id="77" depart="15.40" from="-6061397" to="47920782#5"/>
    <trip id="78" depart="15.60" from="50429521#0" to="6053093#1"/>
    <trip id="79" depart="15.80" from="308745784#4" to="6061544#2"/>
    <trip id="80" depart="16.00" from="119971773#10" to="-6057544#3"/>
    <trip id="81" depart="16.20" from="6061085#3" to="-397315035#1"/>
    <trip id="82" depart="16.40" from="49824292#0" to="-537114618#4"/>
    <trip id="83" depart="16.60" from="131052515" to="6063018#1"/>
    <trip id="84" depart="16.80" from="321476518#1" to="397327934#1"/>
    <trip id="85" depart="17.00" from="121980256" to="6055174#2"/>
    <trip id="86" depart="17.20" from="50008485#1" to="50429925"/>
    <trip id="87" depart="17.40" from="352412106" to="6057192#0"/>
    <trip id="88" depart="17.60" from="514433132#4" to="296237531#0"/>
    <trip id="89" depart="17.80" from="548839840" to="-126303368#1"/>
    <trip id="90" depart="18.00" from="397321701#1" to="513235538#2"/>
    <trip id="91" depart="18.20" from="130764288#0" to="50008440#0"/>
    <trip id="92" depart="18.40" from="-6056532#1" to="346876709#0"/>
    <trip id="93" depart="18.60" from="6054886#0" to="435114788"/>
    <trip id="94" depart="18.80" from="50797092#2" to="346876677"/>
    <trip id="95" depart="19.00" from="543909823#3" to="108402585#0"/>
    <trip id="96" depart="19.20" from="537114618#4" to="-24220659#1"/>
    <trip id="97" depart="19.40" from="6060788#2" to="6057265#0"/>
    <trip id="98" depart="19.60" from="50710189#0" to="-469165494"/>
    <trip id="99" depart="19.80" from="6053731#1" to="589551068#2"/>
    <trip id="100" depart="20.00" from="50431275#0" to="47916244#1"/>
    <trip id="101" depart="20.20" from="401782803" to="575569267#16"/>
    <trip id="102" depart="20.40" from="50429513" to="543909823#1"/>
    <trip id="103" depart="20.60" from="49085298#0" to="-45838766#2"/>
    <trip id="104" depart="20.80" from="589539536#3" to="6063004#1"/>
    <trip id="105" depart="21.00" from="297254928#0" to="-50795353#4"/>
    <trip id="106" depart="21.20" from="345087365" to="6054899#3"/>
    <trip id="107" depart="21.40" from="535563679#2" to="-45532013#2"/>
    <trip id="108" depart="21.60" from="297380211#2" to="47920797"/>
    <trip id="109" depart="21.80" from="131052297#4" to="6054254#0"/>
    <trip id="110" depart="22.00" from="-535489065#4" to="6053731#2"/>
    <trip id="111" depart="22.20" from="509648666" to="490636348#0"/>
    <trip id="112" depart="22.40" from="121980280" to="252140542#2"/>
    <trip id="113" depart="22.60" from="296790099" to="-6057163"/>
    <trip id="114" depart="22.80" from="-521200399" to="589551069#0"/>
    <trip id="115" depart="23.00" from="6051771#0" to="297268565#2"/>
    <trip id="116" depart="23.20" from="130908290#1" to="-514433132#7"/>
    <trip id="117" depart="23.40" from="-6052476#0" to="397329570"/>
    <trip id="118" depart="23.60" from="-6056237#1" to="296790095#0"/>
    <trip id="119" depart="23.80" from="49999718#2" to="514433132#14"/>
    <trip id="120" depart="24.00" from="-6055808#3" to="476103806"/>
    <trip id="121" depart="24.20" from="6057595#1" to="-131052512#2"/>
    <trip id="122" depart="24.40" from="712374359" to="6054329#1"/>
    <trip id="123" depart="24.60" from="466352084#7" to="-346876678#0"/>
    <trip id="124" depart="24.80" from="296272890#0" to="50797093"/>
    <trip id="125" depart="25.00" from="-50513891#4" to="-333922782#0"/>
    <trip id="126" depart="25.20" from="-476103808" to="6061869#3"/>
    <trip id="127" depart="25.40" from="6055122#1" to="203025090#1"/>
    <trip id="128" depart="25.60" from="397355103#0" to="520463954"/>
    <trip id="129" depart="25.80" from="186994993" to="297204283#2"/>
    <trip id="130" depart="26.00" from="-352412100" to="130889749#0"/>
    <trip id="131" depart="26.20" from="-296237531#1" to="476103810"/>
    <trip id="132" depart="26.40" from="425105216#1" to="203023777#1"/>
    <trip id="133" depart="26.60" from="-397040421" to="6061538#0"/>
    <trip id="134" depart="26.80" from="118727311#0" to="468469894#0"/>
    <trip id="135" depart="27.00" from="-125568108#9" to="131520236#1"/>
    <trip id="136" depart="27.20" from="589539517#0" to="460536376#1"/>
    <trip id="137" depart="27.40" from="637150476" to="297212177#0"/>
    <trip id="138" depart="27.60" from="542375108#6" to="468495083"/>
    <trip id="139" depart="27.80" from="466349886#1" to="130285119#0"/>
    <trip id="140" depart="28.00" from="468483112#0" to="384975538"/>
    <trip id="141" depart="28.20" from="297230910" to="-683232181#0"/>
    <trip id="142" depart="28.40" from="-6055095#4" to="590581681#1"/>
    <trip id="143" depart="28.60" from="-6063023#4" to="469165488#0"/>
    <trip id="144" depart="28.80" from="352412106" to="-202992520#2"/>
    <trip id="145" depart="29.00" from="50510610#2" to="6061085#2"/>
    <trip id="146" depart="29.20" from="50431293" to="479469615#0"/>
    <trip id="147" depart="29.40" from="-466352084#2" to="6052442#1"/>
    <trip id="148" depart="29.60" from="296365351#4" to="130908303#2"/>
    <trip id="149" depart="29.80" from="-589551086#1" to="-130444171#2"/>
    <trip id="150" depart="30.00" from="468479923#1" to="421268132#1"/>
    <trip id="151" depart="30.20" from="347003227#0" to="-479469527#14"/>
    <trip id="152" depart="30.40" from="50429931" to="50429927"/>
    <trip id="153" depart="30.60" from="6057173#1" to="-87036501#5"/>
    <trip id="154" depart="30.80" from="50431284#1" to="468479843"/>
    <trip id="155" depart="31.00" from="-50519931" to="469159253"/>
    <trip id="156" depart="31.20" from="6057085" to="6052885#1"/>
    <trip id="157" depart="31.40" from="130285121#0" to="-297254928#1"/>
    <trip id="158" depart="31.60" from="-6061869#15" to="6054573#1"/>
    <trip id="159" depart="31.80" from="50513891#4" to="49085142#1"/>
    <trip id="160" depart="32.00" from="397321703#0" to="438960035#0"/>
    <trip id="161" depart="32.20" from="397324964#1" to="121980310#1"/>
    <trip id="162" depart="32.40" from="121980319#1" to="50510610#2"/>
    <trip id="163" depart="32.60" from="-6063018#3" to="130802359#1"/>
    <trip id="164" depart="32.80" from="696806633#2" to="130285119#2"/>
    <trip id="165" depart="33.00" from="-413577942#4" to="-6055551#9"/>
    <trip id="166" depart="33.20" from="-346627397#2" to="696198855#0"/>
    <trip id="167" depart="33.40" from="514433132#7" to="50228155#0"/>
    <trip id="168" depart="33.60" from="6052442#3" to="49809725#2"/>
    <trip id="169" depart="33.80" from="50226552#0" to="6057581#7"/>
    <trip id="170" depart="34.00" from="-296360388#2" to="468433804"/>
    <trip id="171" depart="34.20" from="50797096#1" to="45532025#1"/>
    <trip id="172" depart="34.40" from="298814315#1" to="-6056532#1"/>
    <trip id="173" depart="34.60" from="-321476519#2" to="537114618#6"/>
    <trip id="174" depart="34.80" from="50427250" to="352412110"/>
    <trip id="175" depart="35.00" from="-6057754#1" to="6063413#0"/>
    <trip id="176" depart="35.20" from="238391744#1" to="627179479"/>
    <trip id="177" depart="35.40" from="-435137396#0" to="6062206#0"/>
    <trip id="178" depart="35.60" from="6063421#0" to="24224994#0"/>
    <trip id="179" depart="35.80" from="448362185#0" to="-50799230#1"/>
    <trip id="180" depart="36.00" from="-120478418#2" to="580463167#1"/>
    <trip id="181" depart="36.20" from="468486221#1" to="-6061869#16"/>
    <trip id="182" depart="36.40" from="-590581681#1" to="580796764"/>
    <trip id="183" depart="36.60" from="-6061870#1" to="296360388#3"/>
    <trip id="184" depart="36.80" from="-24220659#2" to="423830018#1"/>
    <trip id="185" depart="37.00" from="6052577" to="-354202762"/>
    <trip id="186" depart="37.20" from="6057163" to="-535718852#1"/>
    <trip id="187" depart="37.40" from="-6061397" to="-510537104#1"/>
    <trip id="188" depart="37.60" from="397355103#0" to="6056363#3"/>
    <trip id="189" depart="37.80" from="296237525#0" to="108060074#2"/>
    <trip id="190" depart="38.00" from="409537527" to="589539539"/>
    <trip id="191" depart="38.20" from="-297200824#0" to="397327121#0"/>
    <trip id="192" depart="38.40" from="-6063068#1" to="-346876678#0"/>
    <trip id="193" depart="38.60" from="-6053702#2" to="-296795214#3"/>
    <trip id="194" depart="38.80" from="131052508#0" to="333922526#2"/>
    <trip id="195" depart="39.00" from="296756724#0" to="-683375110"/>
    <trip id="196" depart="39.20" from="-397320973#0" to="468433795#0"/>
    <trip id="197" depart="39.40" from="590598870#1" to="296901763"/>
    <trip id="198" depart="39.60" from="50431282#3" to="48018638#0"/>
    <trip id="199" depart="39.80" from="-535521072#1" to="-423602319#0"/>
    <trip id="200" depart="40.00" from="468481612" to="521659767#2"/>
    <trip id="201" depart="40.20" from="-510723128#0" to="-234731661#0"/>
    <trip id="202" depart="40.40" from="590525607#0" to="-520468347#2"/>
    <trip id="203" depart="40.60" from="468479813" to="-131076063#0"/>
    <trip id="204" depart="40.80" from="397282186#1" to="202992520#8"/>
    <trip id="205" depart="41.00" from="-6056085#1" to="-6063024#1"/>
    <trip id="206" depart="41.20" from="345633935#7" to="297401521#10"/>
    <trip id="207" depart="41.40" from="-6060903#2" to="-50260020#4"/>
    <trip id="208" depart="41.60" from="297401856#8" to="-559763675"/>
    <trip id="209" depart="41.80" from="-514198211#1" to="479469527#11"/>
    <trip id="210" depart="42.00" from="6059268#1" to="-520463953"/>
    <trip id="211" depart="42.20" from="6063413#1" to="6057192#1"/>
    <trip id="212" depart="42.40" from="535489065#0" to="590581668#0"/>
    <trip id="213" depart="42.60" from="352412039#1" to="137733558"/>
    <trip id="214" depart="42.80" from="438958617#5" to="-125568108#3"/>
    <trip id="215" depart="43.00" from="479469527#14" to="130927027"/>
    <trip id="216" depart="43.20" from="-580463159#1" to="-648026207"/>
    <trip id="217" depart="43.40" from="121980338#0" to="-6055808#5"/>
    <trip id="218" depart="43.60" from="-6061869#6" to="-520331081#0"/>
    <trip id="219" depart="43.80" from="362659444#2" to="203023775#2"/>
    <trip id="220" depart="44.00" from="50799230#0" to="45838764#1"/>
    <trip id="221" depart="44.20" from="-6063413#0" to="346627382#1"/>
    <trip id="222" depart="44.40" from="479469527#3" to="6051771#4"/>
    <trip id="223" depart="44.60" from="6053285" to="696806633#0"/>
    <trip id="224" depart="44.80" from="-130908179#15" to="-321476519#2"/>
    <trip id="225" depart="45.00" from="-589533513#0" to="-125568114#5"/>
    <trip id="226" depart="45.20" from="-50429520#0" to="397319278#1"/>
    <trip id="227" depart="45.40" from="-514198204" to="202992524#0"/>
    <trip id="228" depart="45.60" from="468434120" to="49999717#0"/>
    <trip id="229" depart="45.80" from="50431277#1" to="-297380211#6"/>
    <trip id="230" depart="46.00" from="-6054899#3" to="296237529"/>
    <trip id="231" depart="46.20" from="545982618" to="-520463952#1"/>
    <trip id="232" depart="46.40" from="397323193#1" to="6054909#3"/>
    <trip id="233" depart="46.60" from="130808339#5" to="-590581593#4"/>
    <trip id="234" depart="46.80" from="439875857#1" to="108060074#4"/>
    <trip id="235" depart="47.00" from="50524890#14" to="44815567#4"/>
    <trip id="236" depart="47.20" from="130889703" to="6056237#10"/>
    <trip id="237" depart="47.40" from="535780677#2" to="-6061869#5"/>
    <trip id="238" depart="47.60" from="-45532022" to="548839845#0"/>
    <trip id="239" depart="47.80" from="508158271" to="-468469900#0"/>
    <trip id="240" depart="48.00" from="131076097#0" to="6056237#22"/>
    <trip id="241" depart="48.20" from="520537749" to="6058296#1"/>
    <trip id="242" depart="48.40" from="352412100" to="-468444094#1"/>
    <trip id="243" depart="48.60" from="-575569267#9" to="-397303090#1"/>
    <trip id="244" depart="48.80" from="6054120" to="6057637#0"/>
    <trip id="245" depart="49.00" from="6054329#2" to="49887642"/>
    <trip id="246" depart="49.20" from="-575569267#16" to="50505139"/>
    <trip id="247" depart="49.40" from="131052512#2" to="50260019#1"/>
    <trip id="248" depart="49.60" from="352412100" to="-130889721#4"/>
    <trip id="249" depart="49.80" from="479469527#7" to="712373883#1"/>
    <trip id="250" depart="50.00" from="-397320973#1" to="49827343#4"/>
    <trip id="251" depart="50.20" from="6060483#2" to="297285722#1"/>
    <trip id="252" depart="50.40" from="6061410#1" to="6051526#3"/>
    <trip id="253" depart="50.60" from="345633935#1" to="435137396#0"/>
    <trip id="254" depart="50.80" from="6062978#4" to="-297200819#0"/>
    <trip id="255" depart="51.00" from="50473181#1" to="40343528#1"/>
    <trip id="256" depart="51.20" from="131052297#4" to="-468444094#0"/>
    <trip id="257" depart="51.40" from="-50795353#4" to="-24238018#1"/>
    <trip id="258" depart="51.60" from="468481620" to="130908179#13"/>
    <trip id="259" depart="51.80" from="50473178#1" to="6062118"/>
    <trip id="260" depart="52.00" from="590581681#1" to="131052386#7"/>
    <trip id="261" depart="52.20" from="6052400#1" to="6061869#10"/>
    <trip id="262" depart="52.40" from="131076097#1" to="180184093"/>
    <trip id="263" depart="52.60" from="6056363#0" to="6052628#1"/>
    <trip id="264" depart="52.80" from="126303368#1" to="50431282#0"/>
    <trip id="265" depart="53.00" from="121980318" to="-423604888#0"/>
    <trip id="266" depart="53.20" from="-469165492" to="413577942#4"/>
    <trip id="267" depart="53.40" from="590581676#1" to="397319286#0"/>
    <trip id="268" depart="53.60" from="469159261" to="-575569267#11"/>
    <trip id="269" depart="53.80" from="-397040420" to="-45532017#1"/>
    <trip id="270" depart="54.00" from="48018642#1" to="49887371#0"/>
    <trip id="271" depart="54.20" from="468434122#0" to="130788225#0"/>
    <trip id="272" depart="54.40" from="589905709#0" to="-468495087#0"/>
    <trip id="273" depart="54.60" from="-468433795#0" to="468450576#1"/>
    <trip id="274" depart="54.80" from="436362870#0" to="215306712#3"/>
    <trip id="275" depart="55.00" from="296754250#0" to="-130788167#1"/>
    <trip id="276" depart="55.20" from="6062971#5" to="203025089#2"/>
    <trip id="277" depart="55.40" from="-346627395" to="543909823#1"/>
    <trip id="278" depart="55.60" from="130285154#3" to="50228568#0"/>
    <trip id="279" depart="55.80" from="-396730438#2" to="422164574#0"/>
    <trip id="280" depart="56.00" from="486641134#1" to="6051526#3"/>
    <trip id="281" depart="56.20" from="131052297#0" to="121980304#0"/>
    <trip id="282" depart="56.40" from="50799689#1" to="130788207#2"/>
    <trip id="283" depart="56.60" from="50431277#0" to="-296359781#4"/>
    <trip id="284" depart="56.80" from="297444228#1" to="589539518#1"/>
    <trip id="285" depart="57.00" from="121980285" to="40343528#1"/>
    <trip id="286" depart="57.20" from="516085384#0" to="-397355102#1"/>
    <trip id="287" depart="57.40" from="469159250" to="130285121#1"/>
    <trip id="288" depart="57.60" from="-397318412#0" to="712373882#0"/>
    <trip id="289" depart="57.80" from="6062277#5" to="-6062701#1"/>
    <trip id="290" depart="58.00" from="296272891#1" to="580779970"/>
    <trip id="291" depart="58.20" from="6060623#0" to="131052339#1"/>
    <trip id="292" depart="58.40" from="334551149#2" to="130772961#1"/>
    <trip id="293" depart="58.60" from="6061713#1" to="50524890#5"/>
    <trip id="294" depart="58.80" from="542269372#1" to="397315033"/>
    <trip id="295" depart="59.00" from="435424521#0" to="-131052297#6"/>
    <trip id="296" depart="59.20" from="-6057751#1" to="6061944#1"/>
    <trip id="297" depart="59.40" from="422000105#1" to="362659444#1"/>
    <trip id="298" depart="59.60" from="121980228" to="397280723"/>
    <trip id="299" depart="59.80" from="548839841" to="118727207#1"/>
    <trip id="300" depart="60.00" from="202992520#6" to="49887373"/>
    <trip id="301" depart="60.20" from="-438960035#0" to="514198209#1"/>
    <trip id="302" depart="60.40" from="6056227#2" to="49999718#1"/>
    <trip id="303" depart="60.60" from="468483112#0" to="520463951#2"/>
    <trip id="304" depart="60.80" from="-590581676#1" to="6055551#12"/>
    <trip id="305" depart="61.00" from="120478529" to="50464889"/>
    <trip id="306" depart="61.20" from="-6063026#1" to="121980326"/>
    <trip id="307" depart="61.40" from="45838766#1" to="509646035#1"/>
    <trip id="308" depart="61.60" from="396704272" to="426405379#2"/>
    <trip id="309" depart="61.80" from="-6056032#0" to="297226543#2"/>
    <trip id="310" depart="62.00" from="696806637" to="215307084#5"/>
    <trip id="311" depart="62.20" from="6051765" to="-296352766#0"/>
    <trip id="312" depart="62.40" from="-397321698#2" to="352831076#0"/>
    <trip id="313" depart="62.60" from="130772929#0" to="24792789"/>
    <trip id="314" depart="62.80" from="-6062701#2" to="589551087#1"/>
    <trip id="315" depart="63.00" from="397303406" to="535618021#1"/>
    <trip id="316" depart="63.20" from="-50524896#1" to="202992520#1"/>
    <trip id="317" depart="63.40" from="321476518#1" to="317710040"/>
    <trip id="318" depart="63.60" from="-296756722#1" to="6056034#1"/>
    <trip id="319" depart="63.80" from="-297401521#6" to="346627387#0"/>
    <trip id="320" depart="64.00" from="296237531#2" to="476103813#1"/>
    <trip id="321" depart="64.20" from="436136930#0" to="6059841"/>
    <trip id="322" depart="64.40" from="-514433132#17" to="130908290#2"/>
    <trip id="323" depart="64.60" from="-297226539#0" to="50431276#1"/>
    <trip id="324" depart="64.80" from="6063018#2" to="-6060504#3"/>
    <trip id="325" depart="65.00" from="-6061386#3" to="435424521#0"/>
    <trip id="326" depart="65.20" from="-87036501#3" to="108402585#0"/>
    <trip id="327" depart="65.40" from="466352084#7" to="-131052512#0"/>
    <trip id="328" depart="65.60" from="589539519#1" to="-438958617#1"/>
    <trip id="329" depart="65.80" from="203671225" to="-202992522#3"/>
    <trip id="330" depart="66.00" from="468429227#3" to="50427683#0"/>
    <trip id="331" depart="66.20" from="321476515#2" to="-6063023#7"/>
    <trip id="332" depart="66.40" from="308745784#1" to="48018640#2"/>
    <trip id="333" depart="66.60" from="-468433808" to="-308739814#0"/>
    <trip id="334" depart="66.80" from="-6056237#16" to="-397316203#0"/>
    <trip id="335" depart="67.00" from="-438958617#8" to="426405380#0"/>
    <trip id="336" depart="67.20" from="575569267#9" to="50427249"/>
    <trip id="337" depart="67.40" from="35600666#0" to="125568108#5"/>
    <trip id="338" depart="67.60" from="-297401519#4" to="-130908274#1"/>
    <trip id="339" depart="67.80" from="-468433793#1" to="51857302"/>
    <trip id="340" depart="68.00" from="50429764#0" to="297273916#0"/>
    <trip id="341" depart="68.20" from="6062277#0" to="673665487#0"/>
    <trip id="342" depart="68.40" from="-6063018#1" to="126303361#0"/>
    <trip id="343" depart="68.60" from="298637125#1" to="-345633936"/>
    <trip id="344" depart="68.80" from="-397327939#0" to="50429521#2"/>
    <trip id="345" depart="69.00" from="130788155#0" to="130285121#0"/>
    <trip id="346" depart="69.20" from="535489416#0" to="203025089#1"/>
    <trip id="347" depart="69.40" from="297254928#0" to="130889704#6"/>
    <trip id="348" depart="69.60" from="352412110" to="-50799230#6"/>
    <trip id="349" depart="69.80" from="296237531#1" to="-468469911"/>
    <trip id="350" depart="70.00" from="-450556654#1" to="6057754#1"/>
    <trip id="351" depart="70.20" from="397280725#2" to="-126303353"/>
    <trip id="352" depart="70.40" from="6061868#0" to="520463951#3"/>
    <trip id="353" depart="70.60" from="50427678#0" to="-514433132#10"/>
    <trip id="354" depart="70.80" from="468436769#0" to="125568108#6"/>
    <trip id="355" depart="71.00" from="-6052597" to="48018639#0"/>
    <trip id="356" depart="71.20" from="-202992520#1" to="297237152#5"/>
    <trip id="357" depart="71.40" from="-6056085#0" to="130927027"/>
    <trip id="358" depart="71.60" from="50008484#0" to="346876725#0"/>
    <trip id="359" depart="71.80" from="130788227#0" to="45839048#0"/>
    <trip id="360" depart="72.00" from="686887526#3" to="-6061868#2"/>
    <trip id="361" depart="72.20" from="50797091" to="-130788227#6"/>
    <trip id="362" depart="72.40" from="6052382#1" to="397282184"/>
    <trip id="363" depart="72.60" from="298814311#0" to="298832235#2"/>
    <trip id="364" depart="72.80" from="-6057544#3" to="130285119#0"/>
    <trip id="365" depart="73.00" from="121980337" to="6054329#1"/>
    <trip id="366" depart="73.20" from="296359781#1" to="-346876678#0"/>
    <trip id="367" depart="73.40" from="202992520#5" to="-6060851#2"/>
    <trip id="368" depart="73.60" from="50429587" to="50511365#3"/>
    <trip id="369" depart="73.80" from="-6056227#2" to="-535546520#1"/>
    <trip id="370" depart="74.00" from="308750138#2" to="346876676"/>
    <trip id="371" depart="74.20" from="50226552#2" to="-559763675"/>
    <trip id="372" depart="74.40" from="6051526#5" to="45837735#0"/>
    <trip id="373" depart="74.60" from="130444170#5" to="-479529187"/>
    <trip id="374" depart="74.80" from="296951212#1" to="589551086#0"/>
    <trip id="375" depart="75.00" from="397324965#1" to="-6060481#0"/>
    <trip id="376" depart="75.20" from="-193002132#0" to="50431283#1"/>
    <trip id="377" depart="75.40" from="-397315035#1" to="-130285134"/>
    <trip id="378" depart="75.60" from="-6056237#20" to="-514191883#1"/>
    <trip id="379" depart="75.80" from="297204290#0" to="-520468347#2"/>
    <trip id="380" depart="76.00" from="-423602679" to="126303354#2"/>
    <trip id="381" depart="76.20" from="-47916247#2" to="130889702#5"/>
    <trip id="382" depart="76.40" from="537114618#2" to="130285137"/>
    <trip id="383" depart="76.60" from="-297368625#1" to="49887371#0"/>
    <trip id="384" depart="76.80" from="237169539#3-AddedOffRampEdge" to="-296795214#0"/>
    <trip id="385" depart="77.00" from="-297380211#1" to="296756718"/>
    <trip id="386" depart="77.20" from="237169539#3" to="50511183#0"/>
    <trip id="387" depart="77.40" from="46899646#0" to="352831076#10"/>
    <trip id="388" depart="77.60" from="-50473277#0" to="-514433132#17"/>
    <trip id="389" depart="77.80" from="-6055909#1" to="48018642#3"/>
    <trip id="390" depart="78.00" from="-468469894#1" to="130889704#4"/>
    <trip id="391" depart="78.20" from="131052339#0" to="297226540"/>
    <trip id="392" depart="78.40" from="527389327#1" to="397040421"/>
    <trip id="393" depart="78.60" from="-575569267#8" to="119971773#5"/>
    <trip id="394" depart="78.80" from="130889721#0" to="352412093"/>
    <trip id="395" depart="79.00" from="286298162#0" to="-496467787"/>
    <trip id="396" depart="79.20" from="-130802371#2" to="50473175#0"/>
    <trip id="397" depart="79.40" from="6061386#3" to="6063026#2"/>
    <trip id="398" depart="79.60" from="589551064#4" to="6063018#3"/>
    <trip id="399" depart="79.80" from="130285121#1" to="130285138"/>
    <trip id="400" depart="80.00" from="-397329580#1" to="50431287#1"/>
    <trip id="401" depart="80.20" from="589905709#0" to="535546521#2"/>
    <trip id="402" depart="80.40" from="252140542#3" to="202992520#7"/>
    <trip id="403" depart="80.60" from="6055808#3" to="589533502#1"/>
    <trip id="404" depart="80.80" from="-352412073" to="-476103808"/>
    <trip id="405" depart="81.00" from="-296365351#1" to="45532025#1"/>
    <trip id="406" depart="81.20" from="-413577942#7" to="193002132#5"/>
    <trip id="407" depart="81.40" from="-6063068#1" to="323495034#0"/>
    <trip id="408" depart="81.60" from="-466352082#0" to="-397327934#1"/>
    <trip id="409" depart="81.80" from="-50799230#0" to="-590581676#0"/>
    <trip id="410" depart="82.00" from="-468475026#2" to="-234731293#5"/>
    <trip id="411" depart="82.20" from="121782027#0" to="50473176#0"/>
    <trip id="412" depart="82.40" from="-130788190" to="-6051771#0"/>
    <trip id="413" depart="82.60" from="-481326097#0" to="-193002132#3"/>
    <trip id="414" depart="82.80" from="397303394#0" to="50429767#1"/>
    <trip id="415" depart="83.00" from="-130808339#7" to="6063021#1"/>
    <trip id="416" depart="83.20" from="321476519#0" to="-50511272#2"/>
    <trip id="417" depart="83.40" from="595913067#1" to="131076097#1"/>
    <trip id="418" depart="83.60" from="6056636#1" to="50427251"/>