<?xml version="1.0" encoding="UTF-8"?>

<!-- generated on Fri Oct 11 16:04:42 2019 by Eclipse SUMO duarouter Version 1.3.1
<configuration xmlns:xsi="http://www.w3.org/2001/XMLSchema-instance" xsi:noNamespaceSchemaLocation="http://sumo.dlr.de/xsd/duarouterConfiguration.xsd">

    <input>
        <net-file value="dcDowntown.net.xml"/>
        <route-files value="dcDowntown.trips.xml"/>
    </input>

    <output>
        <output-file value="dcDowntown.rou.xml"/>
        <alternatives-output value="dcDowntown.rou.alt.xml"/>
    </output>

    <time>
        <begin value="0.0"/>
        <end value="1000.0"/>
    </time>

    <report>
        <no-warnings value="true"/>
        <ignore-errors value="true"/>
        <no-step-log value="true"/>
    </report>

</configuration>
-->

<routes xmlns:xsi="http://www.w3.org/2001/XMLSchema-instance" xsi:noNamespaceSchemaLocation="http://sumo.dlr.de/xsd/routes_file.xsd">
    <vehicle id="0" depart="0.00">
        <route edges="297273915#2 50513886#0 50513886#1 50513886#2 297273916#0 297273916#1 297285722#1 297294784#1 513235538#1 513235538#2 297294791#0 297294791#1 297294792#0 297294792#1 589905511#1 120478695#0 120478695#1 120478695#3 120478695#4 468441885#1 468441885#2 202992519#1 -6057595#1 29961175#1 155011691 421037430#0 421037439#0 -466352084#13 -466352084#11 -466352084#10 -466352084#9 -466352084#7 -466352084#6 -466352084#5 -466352084#4 -466352084#3 -466352084#2 -466352084#1 466352084#0"/>
    </vehicle>
    <vehicle id="1" depart="0.20">
        <route edges="296951209#1 130285155#0 -50427058#0 -423602319#0 -423602679 -423604888#0 397355102#1 509640269 423607087 423608853 120478418#1 120478418#2 423615732#1 297200824#0 297200824#1 6055102#1 397315033 305368640#1 -126303362#1 -130802371#2 -130802371#1 -397303092#1 -421290235#1 -509466050#1 -397316522#1"/>
    </vehicle>
    <vehicle id="2" depart="0.40">
        <route edges="6062809#1 -6062809#1 -345632497#1 -468495087#0 -6057751#4 -6057751#1 -6057751#0 6055608#1 6055608#4 397321697#0 -203025090#1 29961168#1 397321700#0 397321700#1 297368625#1 297368625#4 297368625#5 397321698#1 397321698#2 397321701#1 130802376#1 130802376#2 -202992522#3 -202992522#2 -202992522#1"/>
    </vehicle>
    <vehicle id="3" depart="0.60">
        <route edges="537114618#3 537114618#4 537114618#5 537114618#6 469165490#0 469165490#2 590581668#0 590581668#2 589539534#1 126303354#1 126303354#2 126303354#6 126303354#7 345709542#1 298848145#1 130285121#0 130285121#1 508158271 508158272#0 508158272#1 508158272#2 50260020#0 50260020#1 50260020#2 50260020#3 50260020#4 -297382770#4 -297382770#1 397321704#1 397321703#0"/>
    </vehicle>
    <vehicle id="4" depart="0.80">
        <route edges="146537585#0 146537585#1 421750231#1 297273916#0 297273916#1 297285722#1 494175930#1 397324965#1 297368443#1 146537579#1 130285135#0 130285135#1 397319284#1 542269372#1 589533564#1 589539521#1 70948801#0 70948801#2 70948801#3 439875858#2 439875858#5 439875858#6 439875858#7 516085385 509646035#0 509646035#1 509646035#2 130788204#1 435424522#3 435424522#4 637150482#0 637150482#1 637150476 637150481 397041947#0 397041947#1 50799761 130764288#0 130764288#1 6062251 696198853 50008445#0 50008445#1 6057583#0 6057583#1 479469527#0 479469527#2 479469527#3 479469527#4 479469527#5 479469527#6 479469527#7 479469527#8 479469527#9 479469527#10 479469527#11 479469527#12 479469527#13 479469527#14 346627395 346627394 346627392#0 6062675 589539541#0 589539541#1 589539540 589905645#0 589905645#1 590581595 590581686#0"/>
    </vehicle>
    <vehicle id="5" depart="1.00">
        <route edges="-297254936#2 -297254936#1 -297254936#0 -296756724#0 -296756722#1 -296756722#0 -520331079 -6056034#2 -6056034#1 -6056034#0 -696737832#1 -696737832#0 520331082 -345632497#4 -345632497#1 -347004689#7 -347004689#5 -347004689#4 -347004689#3 -347004689#0 -397455186 117251331 -346876683#8 -346876683#7 -346876683#3 -346876683#1 -346876683#0 -24217341#1 398810870 535618021#1 6061538#0 6061538#1 6061538#2 469172791 397277252#1 397277250 397277245 469172785 50202335 6057626 423630952 -468434116#0 6062397 -397360056#1 -397360056#0 -50431293 509326252 50431292 696806634#0 696806634#1 696806634#2 589533515#0 589533515#1 589533504#0 589533504#1 509326127#0 50524889#0 50524889#1 50524889#3 50524889#4 50524889#6 50524889#7 50524889#10 50524889#11 50524889#12 50524889#13 50524889#14 466349886#0 466349886#1 466349886#2 50524890#1 50524890#2 50524890#3 50524890#4 6061544#0 6061544#1"/>
    </vehicle>
    <vehicle id="6" depart="1.20">
        <route edges="-6063023#0 -589533513#0 696063560 589539539 49887371#0 49887371#1 49887371#2 421047462 469922757 130285088 454815092 469165485 442066186#0 353283534#0 353283534#1 323742931 352412093 -352411913 -354202945#1 476103809#0 298832254#1 298832254#3 298832261#0 298832261#1 298832261#2 126303356#1 476103811 476103813#0 476103813#1 298815729#0 298815729#1 352412039#0 352412039#1 47920785#0 47920785#1 -47920785#1"/>
    </vehicle>
    <vehicle id="7" depart="1.40">
        <route edges="-308739814#1 308739814#1 435424522#0 435424522#3 435424522#4 637150482#0 637150482#1 637150476 637150481 397041947#0 397041947#1 50799761 130764288#0 130764288#1 6062251 696198853 50008445#0 50008445#1 6057583#0 6057583#1 479469527#0 479469527#2 479469527#3 479469527#4 479469527#5 479469527#6 479469527#7 479469527#8 479469527#9 479469527#10 479469527#11 479469527#12 479469527#13 479469527#14 346627395 346627394 346627392#0 6062675 589539541#0 589539541#1 589539540 589905645#0 589905645#1 590581595 6056231#0 6056231#1 108402579#0 130889721#0 130889721#3 130889721#4 130889721#5 130889721#6 589905708#0 589905708#1 130889719#1 130889718 44815567#1 44815567#2 44815567#3 44815567#4 44815567#5 308750138#1 308750138#2 627179479 -627179483 -112271634#2 112271634#2"/>
    </vehicle>
    <vehicle id="8" depart="1.60">
        <route edges="548839845#0 548839845#1 548839845#2 548839845#3 297204290#2 297204290#3 -131052320 -590669500 131052324#0 -130908274#1 -24238023#2 -24238023#1 -590525607#1 346876674#0 346876674#1 49085140#0 49085140#1 121980342 49085142#1 24238018#0 24238018#1 24238018#2 24238018#3 24238018#4 397319281#1 436271294#1 409541717 50799606#0 50799606#1 397319279#0 70948803#1 47471725#1 -130802371#2 -130802371#1 -397303092#1 -397303090#1 -175873836#1 130802372#1 130802372#3 589551073#1 345633934#2 589539535#1 589533502#1 126303366#1 126303365 6058797 520537749 466359342#1 466359342#2 345087364 436633031 469165483 347345107 469922756#0 469922756#1 469922756#2 469922756#3 215306712#0 6055187#2"/>
    </vehicle>
    <vehicle id="9" depart="1.80">
        <route edges="297254936#1 -297254936#1 -297254936#0 -296756724#0 -296756722#1 -296756722#0 -520331079 -6056034#2 -6056034#1 -6056034#0 -468495086 -468495084#1 -468495084#0 -6056032#1 -6056032#0 6054078#1 468495083 633517690 130908303#0 130908303#1 130908303#2 130908303#3 130908303#4 468444094#1 421750231#1 297273916#0 297273916#1 297285722#1 297294784#1 513235538#1 513235538#2 131052386#3 131052386#4 131052386#5 6059107#3 6059107#5 131052512#0 131052512#1 131052512#2 131052512#3 297380211#1 297380211#2 297380211#4 297380211#5 297380211#7 590581593#1 590581593#2 590581593#4 590581593#5 520468342 -520468347#3 -520468347#2 -520468347#1 397323193#0"/>
    </vehicle>
    <vehicle id="10" depart="2.00">
        <route edges="-589551064#3 -589551064#2 -50427673#2 -50427673#0 50431281#0 50431281#1 50431282#1 50431282#2 50431282#3 50797092#7 423830018#1 130772938 50431290#1 50431289 130772943#0 130772943#1 509326253 687108617 435106239#0 435106239#1 435106239#2 397360057#1 469154543 6058077 583695032 397321711#1 509640269 423607087 423608853 120478418#1 120478418#2 423615732#1 297200824#0 297200824#1 -47916243#0 -120478419#1 397315035#1 397315035#2 397315035#3 -45838764#1 -45838764#0 -510723128#2 -510723128#1 -510723128#0 -509645504#1 -509645504#0 45838765#1 203025089#1 203025089#2 -45838766#2 -45838766#1 -45838766#0 297285723#0 146537585#0 146537585#1 297273914#0 297273914#1 421751762#0 50513892#1 -468450578#1 -468450578#0 -468479919 -479994389 -126303353 -514198210 -514198209#1 -297237155#1"/>
    </vehicle>
    <vehicle id="11" depart="2.20">
        <route edges="130788207#11 130788207#12 130788207#13 130788207#16 130788207#17 514433132#20 514433132#21 130927025#0 130927027 520463954 6056237#0 6056237#1 6056237#4 6056237#5 6056237#6 6056237#8 6056237#10 6056237#11 6056237#14 6056237#16 6056237#17 6056237#18 6056237#20 6056237#21 6056237#22 520463955#0 520463955#1 346627392#0 6062675 589539541#0 589539541#1 589539540 589905645#0 589905645#1 590581595 6056231#0 6056231#1 108402579#0 130889721#0 130889721#3 130889721#4 130889721#5 130889721#6 589905708#0 589905708#1 542375108#2 542375108#4 542375108#5"/>
    </vehicle>
    <vehicle id="12" depart="2.40">
        <route edges="590525653#0 590525653#1 6063412#5 130802362#1 130802362#2 466359340#0 466359340#1 535462248 421075190#0 421075190#1 421075190#2 421075190#3 543909823#0 543909823#1 543909823#2 543909823#3 543909823#4 468436769#0 6056069#0 589533583#0 589539536#0 589539536#2 589539536#3 589539536#4 590581668#0 590581668#2 589539534#1 126303354#1 126303354#2 126303354#6 126303354#7 345709542#1 -347003327#1 -397316204#1 -397316195#0 -397316186#1 -397316180#0 -397316171 -397316176#1 -70948803#1 397319282#1 397319286#0"/>
    </vehicle>
    <vehicle id="13" depart="2.60">
        <route edges="481785919 -481785919 -130927091 -6060851#4 -6060851#3 -6060851#2 -6060851#1 -6060851#0 130927059 132577682#1 132577682#2 501679135 6054462 488998592#0 297236035#0 297236035#1 514198211#1 6055517#0 514198208 514198204 514198207#0 514198209#1 514198210 126303353 479994389 468479919 468450578#0 468450578#1 297273915#1 297273915#2 50513886#0 50513886#1 50513886#2 297273916#0 297273916#1 297294797#1 45838766#0 45838766#1 45838766#2 -203025089#2 -203025089#1 -468450579#0 468450580#1 509645504#1 510723128#0 510723128#1 510723128#2 45838764#0 45838764#1 -397315034#0 -397315035#2 -397315035#1 120478419#1 47916243#0 -297200824#1 -297200824#0 -397304550 -120478418#2 -120478418#1 -468434116#0 6062397 -397360056#1 -397360056#0 -50431293"/>
    </vehicle>
    <vehicle id="14" depart="2.80">
        <route edges="-673665486#2 -46899646#1 56394086 130285137 481326097#0 -24792789 24792786 469159251 469159250 -452398909 -6059739#2 -6059739#1 -6059739#0 6063412#0 6063412#1 6063412#2 6063412#3 6063412#4 6063412#5 130802362#1 130802362#2 130802362#3 130802362#4 130802362#5 696737929#0 696737929#1 130802360#0 130802360#1 469159255 353283535#1 353283535#2 353283535#3 469159257#0 469159256#1 469159256#2 469159256#3 469159259 469159258#0 469159258#1 468469919#0 468469927#1 468469927#2 460536376#0 460536376#1 468469923#0 468469923#1 468469931#0 468469935#1 468469935#2 468469943#0 468469939#1 468469946#0 200019461#1 200019461#2 435424520#0 435424520#1 -420781368 -6057581#7 -6057581#6 -6057581#5 -6057581#4 -6057581#3 -6057581#2 -6057581#1 45838762#0 45838762#1 6062204#1 6057595#1 202992520#1 202992520#2 202992520#3 202992520#4 202992520#5 202992520#6 202992520#7 202992520#8 296334912#0 296334912#1 499651843#0 499651843#1 499651843#2 468479843 296324854#1 479480581#1 -580463158 -331914019 331914017 488998583 317749618 6054462 132577565#0 132577565#3 50515741#2 50515741#3 468479799#0 468479793 468479813 468479810 468479807 130714996"/>
    </vehicle>
    <vehicle id="15" depart="3.00">
        <route edges="6052442#2 6052442#3 -26629746 6058299 50427072#0 50427072#1 -50427250 50427245 118727177 -436362862 436362862 50427251 50427246#0 50427246#1 50427249 50427240 50427051#1 50428544 121980228 397354452#0 6056366#0 6056366#1 397355103#0 397355103#1 130285119#0 130285119#1 130285119#2 6055551#12 468434115 537114618#0 537114618#1 537114618#2 537114618#3 537114618#4 537114618#5 537114618#6 469165490#0 469165490#2 590581668#0 590581668#2 589539534#1 126303354#1 126303354#2 126303354#6 126303354#7 345709542#1 298848145#1 298814315#0 298814315#1 508158267 508158270#1 508158270#2 508158270#3 421268132#0 421268132#1 439875857#1 590598870#0 590598870#1 509326776#0 509326776#1 321444901#0 6062204#1 29961175#1 155011691 50710195#0 297296749#2 -466352083#1 -125568114#6 -125568114#5 -125568114#4 -125568114#3"/>
    </vehicle>
    <vehicle id="16" depart="3.20">
        <route edges="486641135#1 -486641135#1 -130908164#4 -130908164#2 435134458#2 435134458#3 50511215 50511212 296788578 121980242#0 121980242#0-AddedOffRampEdge 121980242#1 121980246#0 121980246#1 49085295 49085300 296790090 6052388 297204280 121980328 6053251 49084347#0 130908274#1 26605693 346876702#0 6059842#1 6059842#2"/>
    </vehicle>
    <vehicle id="17" depart="3.40">
        <route edges="6062277#6 696063555 589551070#0 50431282#0 50431282#1 50431282#2 50431282#3 50797092#7 423830018#1 130772938 50431290#1 50431289 130772943#0 130772943#1 509326253 687108617 435106239#0 435106239#1 435106239#2 397360057#1 469154543 6058077 583695032 397321711#1 509640269 423607087 423608853 120478418#1 120478418#2 423615732#1 297200824#0 297200824#1 -47916243#0 -120478419#1 -120478694#2 -120478694#1 -6053914#0 -469115617 -468495095#1 -35600666#1 -35600666#0 -468495094#1 24217341#1 346876683#0 346876683#1 346876683#3 346876683#7 346876683#8 -117251331 397455186 347004689#0 347004689#3 347004689#4 347004689#5 347004689#7 468495088#1 -590598878#1 -126303368#1 -126303368#0 131052333"/>
    </vehicle>
    <vehicle id="18" depart="3.60">
        <route edges="146537578#1 297294771#1 -203025089#2 -203025089#1 -468450579#0 468450580#1 509645504#1 510723128#0 510723128#1 510723128#2 45838764#0 45838764#1 -397315034#0 -397315035#2 -397315035#1 120478419#1 47916243#0 -297200824#1 -297200824#0 -397304550 -120478418#2 -120478418#1 -468434116#0 6062397 -397360056#1 -397360056#0 -50431293 509326252 50431292 6057417#1 6057417#2 6057417#3 130908289#0 6052895 50427962#0 50427962#1 121980274 50429528 121980329 50429529 508231953 49826172 -469159250 -469159251 -130285134 24792789 -481326097#0 6060664 590581676#0 590581676#1 590581676#2 590581675#0 590581675#1 590581675#2 170264126#0 170264126#1 535521072#1"/>
    </vehicle>
    <vehicle id="19" depart="3.80">
        <route edges="50511185 6062206#9 689651821 468469907#0 468469907#1 589905467 397323193#0 397323193#1 397323193#2 589551074#0 119971773#0 119971773#2 119971773#3 119971773#5 119971773#7 119971773#8 119971773#10 50513902 397327931"/>
    </vehicle>
    <vehicle id="20" depart="4.00">
        <route edges="-346627395 -479469527#14 -479469527#13 -479469527#12 -479469527#11 -479469527#10 -479469527#9 -479469527#8 -479469527#7 -479469527#6 -479469527#5 -479469527#4 -479469527#3 -479469527#2 -479469527#1 -6057583#2 -6057583#0 50008444 130764289#0 130764289#1 130764299 509648666 26708459 -397041947#1 -397041947#0 397041946 24222606 121980264#1 121980264#2 -435424522#4 -435424522#3 -435424522#0 -308739814#1 -308739814#0 -435424521#1 -435424521#0 -420781368 -6057581#7 -6057581#6 -6057581#5 -6057581#4 -6057581#3 -6057581#2 -6057581#1 45838762#0 45838762#1 6062204#1 6057595#1 202992520#1 202992520#2 202992520#3 -590581593#5 -590581593#4 297296751#0"/>
    </vehicle>
    <vehicle id="21" depart="4.20">
        <route edges="50429518 38131492 121980355 469154541 50429509 50797096#1 130764276#0 130764276#1 50797095 47920797 50427690#0 50427690#1 137992968 121980333#0 118727177 -436362862 -50202337 50202337 490636334 6053093#1 296951208#2 296951208#3 296901762 296901768 6052171 555178829#1 555178829#2 555178829#3 6053201 -468423958"/>
    </vehicle>
    <vehicle id="23" depart="4.60">
        <route edges="50710195#0 -47916246#0 -589551087#2 -589551087#1 202992520#1 202992520#2 202992520#3 202992520#4 202992520#5 202992520#6 202992520#7 202992520#8 296334912#0 296334912#1 499651843#0 499651843#1 499651843#2 468479843 296324854#1 479480581#1 -580463158 -331914019 331914017 488998583 317749618 6054462 132577565#0 132577565#3 50279569"/>
    </vehicle>
    <vehicle id="24" depart="4.80">
        <route edges="131052420#2 -131052420#2 -131052420#1 -126303368#1 -126303368#0 -203023774 296237525#0 296237525#1 481353585 468495091#0 87036501#1 87036501#2 87036501#3 87036501#4 87036501#5 87036501#6 87036501#7 468894682 -297254936#4"/>
    </vehicle>
    <vehicle id="25" depart="5.00">
        <route edges="-49827343#3 -49827343#2 -49827343#1 -49827343#0 -282170072#2 -282170072#1 -282170072#0 50524890#6 50524890#7 50524890#8 50524890#9 50524890#10 -6063023#7 -6063023#6 -6063023#5 -6063023#4 -6063023#3 -6063023#1 -6063023#0 -589533513#0 696063560 589539539 425105217#0 589539538 -346627397#4 -346627397#3 -346627397#2 -346627397#1 -479469527#14 -479469527#13 -479469527#12 -479469527#11 -479469527#10 -479469527#9 -479469527#8 -479469527#7 -479469527#6 -479469527#5 -479469527#4 -479469527#3 -479469527#2 -479469527#1 -6057583#2 -6057583#0 50008444 130764289#0 130764289#1 130764299 509648666 396689497 50799759 130764297#0 130764297#1 -535489416#9 -535489416#8 -535489416#7 396702127#2"/>
    </vehicle>
    <vehicle id="26" depart="5.20">
        <route edges="509648666 396689497 6062251 696198853 50008445#0 50008445#1 6057583#0 6057583#1 479469527#0 479469527#2 479469527#3 479469527#4 479469527#5 479469527#6 479469527#7 479469527#8 479469527#9 479469527#10 479469527#11 479469527#12 479469527#13 479469527#14 346627395 346627394 346627392#0 6062675 589539541#0 589539541#1 589539540 589905645#0 589905645#1 590581595 6056231#0 6056231#1 108402579#0 130889721#0 130889721#3 130889721#4 130889721#5 130889721#6 589905708#0 589905708#1 130889719#1 130889718 44815567#1 44815567#2 44815567#3 44815567#4 44815567#5 44815567#6 -590581675#2 590581675#2"/>
    </vehicle>
    <vehicle id="28" depart="5.60">
        <route edges="108060074#5 -468433804 -130908282 -438960035#1 -438960035#0 -468433805 -468433806#1 -6061944#2 -6061944#1 126303354#6 126303354#7 175873836#1 397303090#1 397303092#1 130802371#1 130802371#2 126303362#1 298829677#1 -397316203#0 -45838763#1 -535718852#1 -120478694#2 -120478694#1 -6053914#0 -469115617 -468495095#1 -35600666#1 -35600666#0 -468495094#1 24217341#1 346876683#0 346876683#1 346876683#3 346876683#7 346876683#8 130908272 346876671 590525607#0 24238023#0 24238023#2 130908274#1 203023777#1 51373071 296606844 121980338#0 121980338#1 6056201"/>
    </vehicle>
    <vehicle id="29" depart="5.80">
        <route edges="296355738#0 296355738#2 47916246#0 297296762#1 297296762#3 50710197#0 50710197#1 589550999 288581933#0 288581933#1 6061085#0 6061085#1 6061085#2 6061085#3 6061085#4 6061085#5 6061085#6 397303394#0 397303394#1 397303390 354204820#0"/>
    </vehicle>
    <vehicle id="30" depart="6.00">
        <route edges="50511187#7 -50511187#8 -50511187#6 -50511187#1 6056046 50511183#0 50511183#1 50511183#2 712373883#0 712373883#1 -202992520#8 -202992520#7 -202992520#6 -202992520#5 -202992520#4 -202992520#3 -202992520#2 -202992520#1 -6057595#1 -6062204#1 6062876#1 650605165 468450542 6057221#1 130285122#0 130285122#1 126303355#1 -347003227#0 -468433791#1 468433791#1 347003227#0"/>
    </vehicle>
    <vehicle id="31" depart="6.20">
        <route edges="6055962#0 -6055962#0 590581681#0 590581681#1 590581681#2 -296359781#1 -296359781#0 296359781#0"/>
    </vehicle>
    <vehicle id="32" depart="6.40">
        <route edges="296272891#1 296272891#2 121980239 121980245 24222943 50511197#0 296348848#4 286298162#0 286298162#1 442466941#0 712374360 -202992520#8 -202992520#7 -202992520#6 -202992520#5 -202992520#4 -202992520#3 -202992520#2 -202992520#1 -6057595#1 -6062204#1 6062876#1 650605165 468450542 6057221#1 321444899#1 -434444693#2 -434444693#0 -509646034#1 -352412076 -352412073 -47920785#1"/>
    </vehicle>
    <vehicle id="33" depart="6.60">
        <route edges="-175873836#1 345709542#1 -347003327#1 -397316204#1 -397316195#0 -397316186#1 -397316180#0 -397316171 -397316176#1 -70948803#1 -397316203#0 -45838763#1 -535718852#1 -120478694#2 -120478694#1 -6053914#0 -469115617 -468495095#1 -35600666#1 -35600666#0 -468495094#1 24217341#1 346876683#0 346876683#1 346876683#3 346876683#7 346876683#8 -117251331 397455186 347004689#0 347004689#3 347004689#4 347004689#5"/>
    </vehicle>
    <vehicle id="34" depart="6.80">
        <route edges="6058412#1 297226544#0 297226544#1 297226544#2 468479923#0 468479923#1 6054111#2 6054111#3 297237155#1 297237154#1 297237154#2 297237152#0 297237152#1 297237152#2 297237152#3 297237152#4 297237152#5 297237152#7 296352768#1 296352766#0 486641134#1 296348848#1 296348848#4 286298162#0 286298162#1 442466941#0 712374360 -202992520#8 -202992520#7 -202992520#6 -202992520#5 -202992520#4 -202992520#3 -202992520#2 -202992520#1 -6057595#1 29961175#1 155011691 6056532#0 6057581#0 6057581#2 6057581#3 6057581#4 6057581#5 6057581#6 6057581#7 420781368 435424521#0 435424521#1 308739814#0 308739814#1 435424522#0 435424522#3 435424522#4 637150482#0 637150482#1 637150476 637150481 397041947#0 397041947#1 50799761 130764288#0 130764288#1 6062251 696198853 50008445#0 50008445#1 6057583#0 6057583#1 479469527#0 479469527#2 479469527#3 479469527#4 479469527#5 479469527#6 479469527#7 479469527#8 479469527#9 479469527#10 479469527#11 479469527#12 479469527#13 479469527#14 346627395 346627394 346627391#0 -346627391#0"/>
    </vehicle>
    <vehicle id="35" depart="7.00">
        <route edges="352412076 509646034#1 434444693#0 434444693#1 130788192#0 130788195 130788190 125568108#0 125568108#1 125568108#2 125568108#3 125568108#5 125568108#6 125568108#7 125568108#9 125568108#10 125568108#11 125568108#12 125568108#13 125568108#14 396698959 396698958 397040422#1 397040420 -514433132#17 -514433132#16 -514433132#15 -514433132#14 -514433132#13 -514433132#12 -514433132#10 -514433132#9 -514433132#8 -514433132#7 -514433132#6 -514433132#5 -514433132#4 -514433132#3 -514433132#2 -514433132#1 -514433132#0 6060793#0 6060793#1 -6060793#1"/>
    </vehicle>
    <vehicle id="36" depart="7.20">
        <route edges="-6055517#1 -514198211#1 435134458#1 130908164#2 -130808339#4 -130808339#2 -130808339#0 486643098 -397327931 -50513902 -333922766#4 -333922766#3 -333922766#2 -333922766#1 -397327937#0 -397327936#1 -397327935#0 -397327939#1 -397327939#0 -397327932 -397327934#1 -397318412#0 -397318414#1 -397318410#0 -397318411#1 397318416#1 589533564#1 589539521#1"/>
    </vehicle>
    <vehicle id="37" depart="7.40">
        <route edges="469159259 584533993#0 584533993#1 466349882#0 121980352 -520532363 -6060903#2 -6060903#0 589539535#1 589533502#1 468434122#0 468434122#1 695842775 469157092 468434120 345633935#0 345633935#1 345633935#2 345633935#3 -438958617#9 -438958617#8 -438958617#6 -438958617#5 -438958617#3 -438958617#1 -589551067#4 -589551067#1 -589551067#0 50431277#0 50431277#1 50431277#2 6062277#0 6062277#1 6062277#2 6062277#3 6062277#4 6062277#5 6062277#6 50431279#0 50431279#1 528558499#0 -6057552#4 -6057552#3"/>
    </vehicle>
    <vehicle id="38" depart="7.60">
        <route edges="50008445#0 50008445#1 -6057754#2 -6057754#1 26708627#0 26708627#1 509648666 26708459 -397041947#1 -397041947#0 397041946 24222606 121980264#1 121980264#2 -435424522#4 -435424522#3 -435424522#0 -308739814#1 -308739814#0 -435424521#1 -435424521#0 -420781368 -6057581#7 -6057581#6 -6057581#5 -6057581#4 -6057581#3 -6057581#2 -6057581#1 45838762#0 45838762#1 29961183#1 29961183#2 29961183#3 397321704#1 397321703#0 131076097#0 131076097#1 589539537#0 120478696#1 409551583 397324964#1 397324962 146537578#1 297295058#1 146537585#0 146537585#1 50519379#0 50519379#1 297273917 6062971#1 6062971#4 6062971#5 6055099#1 297268567#0 297268567#1 421754835#1 50513895#1 50513894#1 50513894#2 468486221#1 130285126#1 455024693#0 455024693#1 455024693#2 6276736#1 450556654#0"/>
    </vehicle>
    <vehicle id="39" depart="7.80">
        <route edges="48018642#0 -48018642#0 48018641#0 48018641#1 435114788 396704272 48018651#1 121863780#0 121863780#1 121863780#2 121863780#3 121863780#4 121863780#5 409551582 50009629#0 130772956#1 -130772954#1 -126303361#7 -126303361#3 -126303361#1 -126303361#0 -421077027 -723610179 -468433795#0 -203119342#1 -397327121#0 -468433796 -397327124#1 -347003327#1 -397316204#1 -397316195#0 -397316186#1 -397316180#0 -397316171 -397316176#1 -70948803#1 -397316203#0 -45838763#1 -535718852#1 -120478694#2 -120478694#1 -6053914#0 -469115617 -468495095#1 -35600666#1 -35600666#0 -468495094#1 24217341#1 346876683#0"/>
    </vehicle>
    <vehicle id="40" depart="8.00">
        <route edges="296348848#1 296348848#4 286298162#0 286298162#1 442466941#0 712374360 -202992520#8 -202992520#7 -202992520#6 -202992520#5 -202992520#4 -202992520#3 -202992520#2 -202992520#1 -6057595#1 -6062204#1 6062876#1 650605165 468450542 6057221#1 130285122#0 130285122#1 126303355#1"/>
    </vehicle>
    <vehicle id="41" depart="8.20">
        <route edges="-535489685#7 -535489685#6 -590581677#3 -590581677#2 -590581677#1 -590581677#0 -44815567#6 -44815567#5 -44815567#4 -44815567#3 -44815567#2 -44815567#1 -44815567#0 -24792781 -589905708#1 -589905708#0 -130889721#6 -130889721#5 -130889721#4 -130889721#3 -130889721#1 -108402579#1 108402585#0 108402585#1 490636349 696063560 589539539 425105217#0 589539538 -346627392#1 -520463955#2 -520463955#0 -6056237#22 -6056237#21 -6056237#20 -6056237#18 -6056237#17 -6056237#16 -6056237#14 -6056237#11 -6056237#10 -6056237#8 -6056237#6 -6056237#5 -6056237#4 -6056237#1 -6056237#0 -520463954 686887525#0 686887525#1 396683173 -514433132#21 -514433132#20 -514433132#19 -514433132#18 -514433132#17 -514433132#16 -514433132#15 -514433132#14 -514433132#13 -514433132#12 -514433132#10 -514433132#9 -514433132#8 -514433132#7 -514433132#6 -514433132#5 -514433132#4 -514433132#3 -514433132#2 -514433132#1 -514433132#0 -590581681#7 -590581681#6 -590581681#5 -590581681#4 -590581681#3 -590581681#2 -590581681#1 -590581681#0 6055962#0 6055962#1 6055962#2 468441477 409546603 130788221#1 130788224 -130788225#1 -130788225#0 -112601548#1"/>
    </vehicle>
    <vehicle id="42" depart="8.40">
        <route edges="-683232181#3 683232181#2 683232181#4 683232181#6 297401519#0 297401519#2 -466352084#9 -466352084#7 -466352084#6 -466352084#5 -466352084#4 514433132#10 514433132#12 514433132#13 514433132#14 514433132#15 514433132#16 514433132#17 -397040420"/>
    </vehicle>
    <vehicle id="43" depart="8.60">
        <route edges="-282170072#1 542375108#6 590525653#0 590525653#1 397472926 590525641 345633937#1 130285156#0 130285156#1 590598876#0 438958617#1 438958617#3 50524889#10 50524889#11"/>
    </vehicle>
    <vehicle id="44" depart="8.80">
        <route edges="6062971#1 6062978#2 130908303#0 130908303#1 130908303#2 130908303#3 130908303#4 468444094#1 421750231#1 297273916#0 297273916#1 297285722#1 297294784#1 513235538#1 513235538#2 297294791#0 297294791#1 297294792#0 297294792#1 589905511#1 120478695#0 120478695#1 120478695#3 120478695#4 468441885#1 468441885#2 202992519#1 -6057595#1 29961175#1 155011691 6056532#0 -47916249 47916249"/>
    </vehicle>
    <vehicle id="45" depart="9.00">
        <route edges="435134456#0 -49824292#1 -49824292#0 -452398909 -6059739#2 -6059739#1 -6059739#0 6063412#0 6063412#1 6063412#2 6063412#3 6063412#4 6063412#5 50524890#1 50524890#2 468434112 590525653#0 590525653#1"/>
    </vehicle>
    <vehicle id="46" depart="9.20">
        <route edges="-6062206#2 6062206#2 6062206#3 6062206#4 6062206#5 6062206#6 6062206#7 6062206#8 6062206#9 689651821 468469907#0 468469907#1 468469904 468469900#0 468469900#1 468469900#3 468469897#0 468469894#0 468469894#1 468469887 296355738#0 296355738#2 -468469890#1 155011691 6056532#0 6057581#0 6057581#2 6057581#3 6057581#4 6057581#5 6057581#6 6057581#7 397327118 -130788155#1 -434444693#2 -434444693#0 -509646034#1 -352412076 -352412073 -47920785#1 -47920785#0 -352412039#1 -352412039#0 -298815729#1 -298815729#0 -476103813#1 -476103813#0 -352412083 -126303356#1 -298832261#2 -298832261#1 -298832261#0 -298832254#3 -298832254#1 -476103809#1 354202945#0 352411913 -352412093 352412093"/>
    </vehicle>
    <vehicle id="47" depart="9.40">
        <route edges="-6054373#1 6054373#1 131052470 -6062809#5 -6062809#3 -6062809#1 -345632497#1 -347004689#7 -347004689#5 -347004689#4 -347004689#3 -347004689#0 -397455186 49085140#0 49085140#1 121980342 49085142#1 24238018#0 24238018#1 24238018#2 24238018#3 24238018#4 397319281#1 436271294#1 409541717 50799606#0 50799606#1 397319279#0 70948803#1 397316176#1 397316171 397316180#0 397316186#1 397316195#0 397316204#1 347003327#1 397327124#1 468433796 397327121#0 203119342#1 468433795#0 723610179 421077027 126303361#0 126303361#1 126303361#3 126303361#7 -126303361#7"/>
    </vehicle>
    <vehicle id="48" depart="9.60">
        <route edges="-125568108#0 -130788190 308739814#0 308739814#1 435424522#0 435424522#3 435424522#4 637150482#0 637150482#1 637150476 637150481 397041947#0 397041947#1 50799761 130764288#0 130764288#1 6062251 696198853 396689493 543380197#0 543380197#1 6055808#0 6055808#3 6055808#5 421054144#0 421054144#1 278391865 130889699 696737917 696806633#0 696806633#1 696806633#2 237743944#0 237743944#1 130889700 468434114#0 468434113 468434112 468434110 468434108 468434107 435134456#0 435134456#1 24792784#1 24792784#2 468434106#1 590581676#0 6063305#2 6063305#3"/>
    </vehicle>
    <vehicle id="49" depart="9.80">