<?xml version="1.0" encoding="UTF-8"?>

<!-- generated on Fri Aug  9 02:46:46 2019 by Eclipse SUMO netconvert Version 1.2.0
<configuration xmlns:xsi="http://www.w3.org/2001/XMLSchema-instance" xsi:noNamespaceSchemaLocation="http://sumo.dlr.de/xsd/netconvertConfiguration.xsd">

    <input>
        <node-files value="dayuan.nod.xml"/>
        <edge-files value="dayuan.edg.xml"/>
        <connection-files value="dayuan.con.xml"/>
        <type-files value="dayuan.typ.xml"/>
    </input>

    <output>
        <output-file value="dayuan.net.xml"/>
    </output>

    <junctions>
        <no-turnarounds value="true"/>
    </junctions>

    <report>
        <verbose value="true"/>
    </report>

</configuration>
-->

<net version="1.1" junctionCornerDetail="5" limitTurnSpeed="5.50" xmlns:xsi="http://www.w3.org/2001/XMLSchema-instance" xsi:noNamespaceSchemaLocation="http://sumo.dlr.de/xsd/net_file.xsd">

    <location netOffset="50.00,0.00" convBoundary="0.00,0.00,200.00,50.00" origBoundary="-50.00,0.00,150.00,50.00" projParameter="!"/>

    <type id="a" priority="3" numLanes="3" speed="13.89"/>
    <type id="b" priority="3" numLanes="2" speed="13.89"/>
    <type id="c" priority="2" numLanes="3" speed="13.89"/>

    <edge id=":1_0" function="internal">
        <lane id=":1_0_0" index="0" speed="13.89" length="8.00" shape="54.00,58.00 46.00,58.00"/>
        <lane id=":1_0_1" index="1" speed="13.89" length="8.00" shape="54.00,54.80 46.00,54.80"/>
        <lane id=":1_0_2" index="2" speed="13.89" length="8.00" shape="54.00,51.60 46.00,51.60"/>
    </edge>
    <edge id=":1_3" function="internal">
        <lane id=":1_3_0" index="0" speed="13.89" length="8.27" shape="46.00,45.20 48.46,44.70 50.00,43.60 51.54,42.50 54.00,42.00"/>
        <lane id=":1_3_1" index="1" speed="13.89" length="8.27" shape="46.00,45.20 54.00,45.20"/>
        <lane id=":1_3_2" index="2" speed="13.89" length="8.27" shape="46.00,48.40 54.00,48.40"/>
    </edge>
    <edge id=":2_0" function="internal">
        <lane id=":2_0_0" index="0" speed="13.89" length="8.00" shape="54.00,8.00 46.00,8.00"/>
        <lane id=":2_0_1" index="1" speed="13.89" length="8.00" shape="54.00,4.80 46.00,4.80"/>
        <lane id=":2_0_2" index="2" speed="13.89" length="8.00" shape="54.00,1.60 46.00,1.60"/>
    </edge>
    <edge id=":2_3" function="internal">
        <lane id=":2_3_0" index="0" speed="13.89" length="8.54" shape="46.00,-4.80 48.46,-5.30 50.00,-6.40 51.54,-7.50 54.00,-8.00"/>
        <lane id=":2_3_1" index="1" speed="13.89" length="8.54" shape="46.00,-1.60 48.46,-2.10 50.00,-3.20 51.54,-4.30 54.00,-4.80"/>
        <lane id=":2_3_2" index="2" speed="13.89" length="8.54" shape="46.00,-1.60 54.00,-1.60"/>
    </edge>
    <edge id=":3_0" function="internal">
        <lane id=":3_0_0" index="0" speed="6.51" length="9.03" shape="92.00,13.60 91.65,11.15 90.60,9.40 88.85,8.35 86.40,8.00"/>
    </edge>
    <edge id=":3_1" function="internal">
        <lane id=":3_1_0" index="0" speed="11.36" length="29.67" shape="95.20,13.60 96.35,5.55 99.80,-0.20 105.55,-3.65 113.60,-4.80"/>
    </edge>
    <edge id=":3_2" function="internal">
        <lane id=":3_2_0" index="0" speed="10.36" length="24.51" shape="98.40,13.60 99.35,6.95 102.20,2.20 106.95,-0.65 113.60,-1.60"/>
    </edge>
    <edge id=":3_3" function="internal">
        <lane id=":3_3_0" index="0" speed="6.51" length="9.03" shape="113.60,8.00 111.15,8.35 109.40,9.40 108.35,11.15 108.00,13.60"/>
    </edge>
    <edge id=":3_4" function="internal">
        <lane id=":3_4_0" index="0" speed="8.00" length="14.19" shape="113.60,4.80 109.75,5.35 107.00,7.00 105.35,9.75 104.80,13.60"/>
    </edge>
    <edge id=":3_5" function="internal">
        <lane id=":3_5_0" index="0" speed="8.67" length="16.85" shape="113.60,4.80 108.35,5.35 104.60,7.00 102.35,9.75 101.60,13.60"/>
    </edge>
    <edge id=":3_6" function="internal">
        <lane id=":3_6_0" index="0" speed="13.89" length="27.28" shape="113.60,4.80 105.50,5.30 100.00,6.40 94.50,7.50 86.40,8.00"/>
        <lane id=":3_6_1" index="1" speed="13.89" length="27.28" shape="113.60,4.80 86.40,4.80"/>
        <lane id=":3_6_2" index="2" speed="13.89" length="27.28" shape="113.60,1.60 86.40,1.60"/>
    </edge>
    <edge id=":3_9" function="internal">
        <lane id=":3_9_0" index="0" speed="13.89" length="27.28" shape="86.40,-8.00 113.60,-8.00"/>
        <lane id=":3_9_1" index="1" speed="13.89" length="27.28" shape="86.40,-4.80 113.60,-4.80"/>
        <lane id=":3_9_2" index="2" speed="13.89" length="27.28" shape="86.40,-4.80 94.50,-4.30 100.00,-3.20 105.50,-2.10 113.60,-1.60"/>
    </edge>
    <edge id=":3_12" function="internal">
        <lane id=":3_12_0" index="0" speed="11.84" length="17.34" shape="86.40,-4.80 95.85,-3.65 102.60,-0.20 102.74,-0.00"/>
    </edge>
    <edge id=":3_13" function="internal">
        <lane id=":3_13_0" index="0" speed="11.36" length="15.07" shape="86.40,-4.80 94.45,-3.65 100.20,-0.20 100.32,0.00"/>
    </edge>
    <edge id=":3_14" function="internal">
        <lane id=":3_14_0" index="0" speed="10.36" length="7.98" shape="86.40,-1.60 93.05,-0.65 94.13,-0.00"/>
    </edge>
    <edge id=":3_15" function="internal">
        <lane id=":3_15_0" index="0" speed="11.84" length="14.95" shape="102.74,-0.00 106.65,5.55 108.00,13.60"/>
    </edge>
    <edge id=":3_16" function="internal">
        <lane id=":3_16_0" index="0" speed="11.36" length="14.60" shape="100.32,0.00 103.65,5.55 104.80,13.60"/>
    </edge>
    <edge id=":3_17" function="internal">
        <lane id=":3_17_0" index="0" speed="10.36" length="16.53" shape="94.13,-0.00 97.80,2.20 100.65,6.95 101.60,13.60"/>
    </edge>
    <edge id=":4_0" function="internal">
        <lane id=":4_0_0" index="0" speed="13.89" length="8.54" shape="154.00,4.80 151.54,5.30 150.00,6.40 148.46,7.50 146.00,8.00"/>
        <lane id=":4_0_1" index="1" speed="13.89" length="8.54" shape="154.00,1.60 151.54,2.10 150.00,3.20 148.46,4.30 146.00,4.80"/>
        <lane id=":4_0_2" index="2" speed="13.89" length="8.54" shape="154.00,1.60 146.00,1.60"/>
    </edge>
    <edge id=":4_3" function="internal">
        <lane id=":4_3_0" index="0" speed="13.89" length="8.00" shape="146.00,-8.00 154.00,-8.00"/>
        <lane id=":4_3_1" index="1" speed="13.89" length="8.00" shape="146.00,-4.80 154.00,-4.80"/>
        <lane id=":4_3_2" index="2" speed="13.89" length="8.00" shape="146.00,-1.60 154.00,-1.60"/>
    </edge>
    <edge id=":5_0" function="internal">
        <lane id=":5_0_0" index="0" speed="13.89" length="8.54" shape="154.00,54.80 151.54,55.30 150.00,56.40 148.46,57.50 146.00,58.00"/>
        <lane id=":5_0_1" index="1" speed="13.89" length="8.54" shape="154.00,51.60 151.54,52.10 150.00,53.20 148.46,54.30 146.00,54.80"/>
        <lane id=":5_0_2" index="2" speed="13.89" length="8.54" shape="154.00,51.60 146.00,51.60"/>
    </edge>
    <edge id=":5_3" function="internal">
        <lane id=":5_3_0" index="0" speed="13.89" length="8.00" shape="146.00,42.00 154.00,42.00"/>
        <lane id=":5_3_1" index="1" speed="13.89" length="8.00" shape="146.00,45.20 154.00,45.20"/>
        <lane id=":5_3_2" index="2" speed="13.89" length="8.00" shape="146.00,48.40 154.00,48.40"/>
    </edge>
    <edge id=":6_0" function="internal">
        <lane id=":6_0_0" index="0" speed="13.89" length="27.28" shape="113.60,58.00 86.40,58.00"/>
        <lane id=":6_0_1" index="1" speed="13.89" length="27.28" shape="113.60,54.80 86.40,54.80"/>
        <lane id=":6_0_2" index="2" speed="13.89" length="27.28" shape="113.60,54.80 105.50,54.30 100.00,53.20 94.50,52.10 86.40,51.60"/>
    </edge>
    <edge id=":6_3" function="internal">
        <lane id=":6_3_0" index="0" speed="11.36" length="15.07" shape="113.60,54.80 105.55,53.65 99.80,50.20 99.68,50.00"/>
    </edge>
    <edge id=":6_4" function="internal">
        <lane id=":6_4_0" index="0" speed="10.36" length="7.98" shape="113.60,51.60 106.95,50.65 105.87,50.00"/>
    </edge>
    <edge id=":6_14" function="internal">
        <lane id=":6_14_0" index="0" speed="11.36" length="14.60" shape="99.68,50.00 96.35,44.45 95.20,36.40"/>
    </edge>
    <edge id=":6_15" function="internal">
        <lane id=":6_15_0" index="0" speed="10.36" length="16.53" shape="105.87,50.00 102.20,47.80 99.35,43.05 98.40,36.40"/>
    </edge>
    <edge id=":6_5" function="internal">
        <lane id=":6_5_0" index="0" speed="6.51" length="9.03" shape="108.00,36.40 108.35,38.85 109.40,40.60 111.15,41.65 113.60,42.00"/>
    </edge>
    <edge id=":6_6" function="internal">
        <lane id=":6_6_0" index="0" speed="8.00" length="14.19" shape="104.80,36.40 105.35,40.25 107.00,43.00 109.75,44.65 113.60,45.20"/>
    </edge>
    <edge id=":6_7" function="internal">
        <lane id=":6_7_0" index="0" speed="8.67" length="16.85" shape="104.80,36.40 105.35,41.65 107.00,45.40 109.75,47.65 113.60,48.40"/>
    </edge>
    <edge id=":6_8" function="internal">
        <lane id=":6_8_0" index="0" speed="10.36" length="24.51" shape="101.60,36.40 100.65,43.05 97.80,47.80 93.05,50.65 86.40,51.60"/>
    </edge>
    <edge id=":6_9" function="internal">
        <lane id=":6_9_0" index="0" speed="6.51" length="9.03" shape="86.40,42.00 88.85,41.65 90.60,40.60 91.65,38.85 92.00,36.40"/>
    </edge>
    <edge id=":6_10" function="internal">
        <lane id=":6_10_0" index="0" speed="8.00" length="14.19" shape="86.40,45.20 90.25,44.65 93.00,43.00 94.65,40.25 95.20,36.40"/>
    </edge>
    <edge id=":6_11" function="internal">
        <lane id=":6_11_0" index="0" speed="13.89" length="27.28" shape="86.40,45.20 94.50,44.70 100.00,43.60 105.50,42.50 113.60,42.00"/>
        <lane id=":6_11_1" index="1" speed="13.89" length="27.28" shape="86.40,45.20 113.60,45.20"/>
        <lane id=":6_11_2" index="2" speed="13.89" length="27.28" shape="86.40,48.40 113.60,48.40"/>
    </edge>
    <edge id=":911_0" function="internal">
        <lane id=":911_0_0" index="0" speed="13.89" length="0.10" shape="25.00,58.00 25.00,58.00"/>
        <lane id=":911_0_1" index="1" speed="13.89" length="0.10" shape="25.00,54.80 25.00,54.80"/>
        <lane id=":911_0_2" index="2" speed="13.89" length="0.10" shape="25.00,51.60 25.00,51.60"/>
    </edge>
    <edge id=":911_3" function="internal">
        <lane id=":911_3_0" index="0" speed="13.89" length="0.10" shape="25.00,45.20 25.00,45.20"/>
        <lane id=":911_3_1" index="1" speed="13.89" length="0.10" shape="25.00,48.40 25.00,48.40"/>
    </edge>
    <edge id=":912_0" function="internal">
        <lane id=":912_0_0" index="0" speed="13.89" length="0.10" shape="25.00,8.00 25.00,8.00"/>
        <lane id=":912_0_1" index="1" speed="13.89" length="0.10" shape="25.00,4.80 25.00,4.80"/>
        <lane id=":912_0_2" index="2" speed="13.89" length="0.10" shape="25.00,1.60 25.00,1.60"/>
    </edge>
    <edge id=":912_3" function="internal">
        <lane id=":912_3_0" index="0" speed="13.89" length="0.10" shape="25.00,-4.80 25.00,-4.80"/>
        <lane id=":912_3_1" index="1" speed="13.89" length="0.10" shape="25.00,-1.60 25.00,-1.60"/>
    </edge>
    <edge id=":913_0" function="internal">
        <lane id=":913_0_0" index="0" speed="13.89" length="0.10" shape="175.00,4.80 175.00,4.80"/>
        <lane id=":913_0_1" index="1" speed="13.89" length="0.10" shape="175.00,1.60 175.00,1.60"/>
    </edge>
    <edge id=":913_2" function="internal">
        <lane id=":913_2_0" index="0" speed="13.89" length="0.10" shape="175.00,-8.00 175.00,-8.00"/>
        <lane id=":913_2_1" index="1" speed="13.89" length="0.10" shape="175.00,-4.80 175.00,-4.80"/>
        <lane id=":913_2_2" index="2" speed="13.89" length="0.10" shape="175.00,-1.60 175.00,-1.60"/>
    </edge>
    <edge id=":914_0" function="internal">
        <lane id=":914_0_0" index="0" speed="13.89" length="0.10" shape="175.00,54.80 175.00,54.80"/>
        <lane id=":914_0_1" index="1" speed="13.89" length="0.10" shape="175.00,51.60 175.00,51.60"/>
    </edge>
    <edge id=":914_2" function="internal">
        <lane id=":914_2_0" index="0" speed="13.89" length="0.10" shape="175.00,42.00 175.00,42.00"/>
        <lane id=":914_2_1" index="1" speed="13.89" length="0.10" shape="175.00,45.20 175.00,45.20"/>
        <lane id=":914_2_2" index="2" speed="13.89" length="0.10" shape="175.00,48.40 175.00,48.40"/>
    </edge>

    <edge id="D1" from="911" to="91" priority="3" type="a">
        <lane id="D1_0" index="0" speed="13.89" length="25.00" shape="25.00,58.00 0.00,58.00"/>
        <lane id="D1_1" index="1" speed="13.89" length="25.00" shape="25.00,54.80 0.00,54.80"/>
        <lane id="D1_2" index="2" speed="13.89" length="25.00" shape="25.00,51.60 0.00,51.60"/>
    </edge>
    <edge id="D2" from="91" to="911" priority="3" type="b">
        <lane id="D2_0" index="0" speed="13.89" length="25.00" shape="0.00,45.20 25.00,45.20"/>
        <lane id="D2_1" index="1" speed="13.89" length="25.00" shape="0.00,48.40 25.00,48.40"/>
    </edge>
    <edge id="D3" from="912" to="92" priority="3" type="a">
        <lane id="D3_0" index="0" speed="13.89" length="25.00" shape="25.00,8.00 0.00,8.00"/>
        <lane id="D3_1" index="1" speed="13.89" length="25.00" shape="25.00,4.80 0.00,4.80"/>
        <lane id="D3_2" index="2" speed="13.89" length="25.00" shape="25.00,1.60 0.00,1.60"/>
    </edge>
    <edge id="D4" from="92" to="912" priority="3" type="b">
        <lane id="D4_0" index="0" speed="13.89" length="25.00" shape="0.00,-4.80 25.00,-4.80"/>
        <lane id="D4_1" index="1" speed="13.89" length="25.00" shape="0.00,-1.60 25.00,-1.60"/>
    </edge>
    <edge id="D5" from="913" to="93" priority="3" type="a">
        <lane id="D5_0" index="0" speed="13.89" length="25.00" shape="175.00,-8.00 200.00,-8.00"/>
        <lane id="D5_1" index="1" speed="13.89" length="25.00" shape="175.00,-4.80 200.00,-4.80"/>
        <lane id="D5_2" index="2" speed="13.89" length="25.00" shape="175.00,-1.60 200.00,-1.60"/>
    </edge>
    <edge id="D6" from="93" to="913" priority="3" type="b">
        <lane id="D6_0" index="0" speed="13.89" length="25.00" shape="200.00,4.80 175.00,4.80"/>
        <lane id="D6_1" index="1" speed="13.89" length="25.00" shape="200.00,1.60 175.00,1.60"/>
    </edge>
    <edge id="D7" from="914" to="94" priority="3" type="a">
        <lane id="D7_0" index="0" speed="13.89" length="25.00" shape="175.00,42.00 200.00,42.00"/>
        <lane id="D7_1" index="1" speed="13.89" length="25.00" shape="175.00,45.20 200.00,45.20"/>
        <lane id="D7_2" index="2" speed="13.89" length="25.00" shape="175.00,48.40 200.00,48.40"/>
    </edge>
    <edge id="D8" from="94" to="914" priority="3" type="b">
        <lane id="D8_0" index="0" speed="13.89" length="25.00" shape="200.00,54.80 175.00,54.80"/>
        <lane id="D8_1" index="1" speed="13.89" length="25.00" shape="200.00,51.60 175.00,51.60"/>
    </edge>
    <edge id="L1" from="1" to="911" priority="3" type="a">
        <lane id="L1_0" index="0" speed="13.89" length="21.00" shape="46.00,58.00 25.00,58.00"/>
        <lane id="L1_1" index="1" speed="13.89" length="21.00" shape="46.00,54.80 25.00,54.80"/>
        <lane id="L1_2" index="2" speed="13.89" length="21.00" shape="46.00,51.60 25.00,51.60"/>
    </edge>
    <edge id="L10" from="6" to="5" priority="3" type="a">
        <lane id="L10_0" index="0" speed="13.89" length="32.40" shape="113.60,42.00 146.00,42.00"/>
        <lane id="L10_1" index="1" speed="13.89" length="32.40" shape="113.60,45.20 146.00,45.20"/>
        <lane id="L10_2" index="2" speed="13.89" length="32.40" shape="113.60,48.40 146.00,48.40"/>
    </edge>
    <edge id="L11" from="6" to="1" priority="3" type="a">
        <lane id="L11_0" index="0" speed="13.89" length="32.40" shape="86.40,58.00 54.00,58.00"/>
        <lane id="L11_1" index="1" speed="13.89" length="32.40" shape="86.40,54.80 54.00,54.80"/>
        <lane id="L11_2" index="2" speed="13.89" length="32.40" shape="86.40,51.60 54.00,51.60"/>
    </edge>
    <edge id="L12" from="1" to="6" priority="3" type="a">
        <lane id="L12_0" index="0" speed="13.89" length="32.40" shape="54.00,42.00 86.40,42.00"/>
        <lane id="L12_1" index="1" speed="13.89" length="32.40" shape="54.00,45.20 86.40,45.20"/>
        <lane id="L12_2" index="2" speed="13.89" length="32.40" shape="54.00,48.40 86.40,48.40"/>
    </edge>
    <edge id="L13" from="3" to="2" priority="3" type="a">
        <lane id="L13_0" index="0" speed="13.89" length="32.40" shape="86.40,8.00 54.00,8.00"/>
        <lane id="L13_1" index="1" speed="13.89" length="32.40" shape="86.40,4.80 54.00,4.80"/>
        <lane id="L13_2" index="2" speed="13.89" length="32.40" shape="86.40,1.60 54.00,1.60"/>
    </edge>
    <edge id="L14" from="2" to="3" priority="3" type="a">
        <lane id="L14_0" index="0" speed="13.89" length="32.40" shape="54.00,-8.00 86.40,-8.00"/>
        <lane id="L14_1" index="1" speed="13.89" length="32.40" shape="54.00,-4.80 86.40,-4.80"/>
        <lane id="L14_2" index="2" speed="13.89" length="32.40" shape="54.00,-1.60 86.40,-1.60"/>
    </edge>
    <edge id="L15" from="6" to="3" priority="2" type="c">
        <lane id="L15_0" index="0" speed="13.89" length="22.80" shape="92.00,36.40 92.00,13.60"/>
        <lane id="L15_1" index="1" speed="13.89" length="22.80" shape="95.20,36.40 95.20,13.60"/>
        <lane id="L15_2" index="2" speed="13.89" length="22.80" shape="98.40,36.40 98.40,13.60"/>
    </edge>
    <edge id="L16" from="3" to="6" priority="2" type="c">
        <lane id="L16_0" index="0" speed="13.89" length="22.80" shape="108.00,13.60 108.00,36.40"/>
        <lane id="L16_1" index="1" speed="13.89" length="22.80" shape="104.80,13.60 104.80,36.40"/>
        <lane id="L16_2" index="2" speed="13.89" length="22.80" shape="101.60,13.60 101.60,36.40"/>
    </edge>
    <edge id="L17" from="4" to="3" priority="3" type="a">
        <lane id="L17_0" index="0" speed="13.89" length="32.40" shape="146.00,8.00 113.60,8.00"/>
        <lane id="L17_1" index="1" speed="13.89" length="32.40" shape="146.00,4.80 113.60,4.80"/>
        <lane id="L17_2" index="2" speed="13.89" length="32.40" shape="146.00,1.60 113.60,1.60"/>
    </edge>
    <edge id="L18" from="3" to="4" priority="3" type="a">
        <lane id="L18_0" index="0" speed="13.89" length="32.40" shape="113.60,-8.00 146.00,-8.00"/>
        <lane id="L18_1" index="1" speed="13.89" length="32.40" shape="113.60,-4.80 146.00,-4.80"/>
        <lane id="L18_2" index="2" speed="13.89" length="32.40" shape="113.60,-1.60 146.00,-1.60"/>
    </edge>
    <edge id="L2" from="911" to="1" priority="3" type="b">
        <lane id="L2_0" index="0" speed="13.89" length="21.00" shape="25.00,45.20 46.00,45.20"/>
        <lane id="L2_1" index="1" speed="13.89" length="21.00" shape="25.00,48.40 46.00,48.40"/>
    </edge>
    <edge id="L3" from="2" to="912" priority="3" type="a">
        <lane id="L3_0" index="0" speed="13.89" length="21.00" shape="46.00,8.00 25.00,8.00"/>
        <lane id="L3_1" index="1" speed="13.89" length="21.00" shape="46.00,4.80 25.00,4.80"/>
        <lane id="L3_2" index="2" speed="13.89" length="21.00" shape="46.00,1.60 25.00,1.60"/>
    </edge>
    <edge id="L4" from="912" to="2" priority="3" type="b">
        <lane id="L4_0" index="0" speed="13.89" length="21.00" shape="25.00,-4.80 46.00,-4.80"/>
        <lane id="L4_1" index="1" speed="13.89" length="21.00" shape="25.00,-1.60 46.00,-1.60"/>
    </edge>
    <edge id="L5" from="4" to="913" priority="3" type="a">
        <lane id="L5_0" index="0" speed="13.89" length="21.00" shape="154.00,-8.00 175.00,-8.00"/>
        <lane id="L5_1" index="1" speed="13.89" length="21.00" shape="154.00,-4.80 175.00,-4.80"/>
        <lane id="L5_2" index="2" speed="13.89" length="21.00" shape="154.00,-1.60 175.00,-1.60"/>
    </edge>
    <edge id="L6" from="913" to="4" priority="3" type="b">
        <lane id="L6_0" index="0" speed="13.89" length="21.00" shape="175.00,4.80 154.00,4.80"/>
        <lane id="L6_1" index="1" speed="13.89" length="21.00" shape="175.00,1.60 154.00,1.60"/>
    </edge>
    <edge id="L7" from="5" to="914" priority="3" type="a">
        <lane id="L7_0" index="0" speed="13.89" length="21.00" shape="154.00,42.00 175.00,42.00"/>
        <lane id="L7_1" index="1" speed="13.89" length="21.00" shape="154.00,45.20 175.00,45.20"/>
        <lane id="L7_2" index="2" speed="13.89" length="21.00" shape="154.00,48.40 175.00,48.40"/>
    </edge>
    <edge id="L8" from="914" to="5" priority="3" type="b">
        <lane id="L8_0" index="0" speed="13.89" length="21.00" shape="175.00,54.80 154.00,54.80"/>
        <lane id="L8_1" index="1" speed="13.89" length="21.00" shape="175.00,51.60 154.00,51.60"/>
    </edge>
    <edge id="L9" from="5" to="6" priority="3" type="a">
        <lane id="L9_0" index="0" speed="13.89" length="32.40" shape="146.00,58.00 113.60,58.00"/>
        <lane id="L9_1" index="1" speed="13.89" length="32.40" shape="146.00,54.80 113.60,54.80"/>
        <lane id="L9_2" index="2" speed="13.89" length="32.40" shape="146.00,51.60 113.60,51.60"/>
    </edge>

    <junction id="1" type="priority" x="50.00" y="50.00" incLanes="L11_0 L11_1 L11_2 L2_0 L2_1" intLanes=":1_0_0 :1_0_1 :1_0_2 :1_3_0 :1_3_1 :1_3_2" shape="54.00,59.60 54.00,40.40 50.97,41.23 49.03,42.77 47.79,43.36 46.00,43.60 46.00,59.60">
        <request index="0" response="000000" foes="000000" cont="0"/>
        <request index="1" response="000000" foes="000000" cont="0"/>
        <request index="2" response="000000" foes="000000" cont="0"/>
        <request index="3" response="000000" foes="000000" cont="0"/>
        <request index="4" response="000000" foes="000000" cont="0"/>
        <request index="5" response="000000" foes="000000" cont="0"/>
    </junction>
    <junction id="2" type="priority" x="50.00" y="0.00" incLanes="L13_0 L13_1 L13_2 L4_0 L4_1" intLanes=":2_0_0 :2_0_1 :2_0_2 :2_3_0 :2_3_1 :2_3_2" shape="54.00,9.60 54.00,-9.60 50.97,-8.77 49.03,-7.23 47.79,-6.64 46.00,-6.40 46.00,9.60">
        <request index="0" response="000000" foes="000000" cont="0"/>
        <request index="1" response="000000" foes="000000" cont="0"/>
        <request index="2" response="000000" foes="000000" cont="0"/>
        <request index="3" response="000000" foes="000000" cont="0"/>
        <request index="4" response="000000" foes="000000" cont="0"/>
        <request index="5" response="000000" foes="000000" cont="0"/>
    </junction>
    <junction id="3" type="priority" x="100.00" y="0.00" incLanes="L15_0 L15_1 L15_2 L17_0 L17_1 L17_2 L14_0 L14_1 L14_2" intLanes=":3_0_0 :3_1_0 :3_2_0 :3_3_0 :3_4_0 :3_5_0 :3_6_0 :3_6_1 :3_6_2 :3_9_0 :3_9_1 :3_9_2 :3_15_0 :3_16_0 :3_17_0" shape="90.40,13.60 109.60,13.60 110.04,11.38 110.60,10.60 111.38,10.04 112.38,9.71 113.60,9.60 113.60,-9.60 86.40,-9.60 86.40,9.60 88.62,10.04 89.40,10.60 89.96,11.38 90.29,12.38">
        <request index="0"  response="000000111000000" foes="000000111000000" cont="0"/>
        <request index="1"  response="111111111000000" foes="111111111000000" cont="0"/>
        <request index="2"  response="111111111000000" foes="111111111000000" cont="0"/>
        <request index="3"  response="000000000000000" foes="111000000000000" cont="0"/>
        <request index="4"  response="000000000000000" foes="111000000000000" cont="0"/>
        <request index="5"  response="000000000000000" foes="111000000000000" cont="0"/>
        <request index="6"  response="000000000000000" foes="111000000000111" cont="0"/>
        <request index="7"  response="000000000000000" foes="111000000000111" cont="0"/>
        <request index="8"  response="000000000000000" foes="111000000000111" cont="0"/>
        <request index="9"  response="000000000000000" foes="000000000000110" cont="0"/>
        <request index="10" response="000000000000000" foes="000000000000110" cont="0"/>
        <request index="11" response="000000000000000" foes="000000000000110" cont="0"/>
        <request index="12" response="000000111111000" foes="000000111111110" cont="1"/>
        <request index="13" response="000000111111000" foes="000000111111110" cont="1"/>
        <request index="14" response="000000111111000" foes="000000111111110" cont="1"/>
    </junction>
    <junction id="4" type="priority" x="150.00" y="0.00" incLanes="L6_0 L6_1 L18_0 L18_1 L18_2" intLanes=":4_0_0 :4_0_1 :4_0_2 :4_3_0 :4_3_1 :4_3_2" shape="154.00,6.40 154.00,-9.60 146.00,-9.60 146.00,9.60 149.03,8.77 150.97,7.23 152.21,6.64">
        <request index="0" response="000000" foes="000000" cont="0"/>
        <request index="1" response="000000" foes="000000" cont="0"/>
        <request index="2" response="000000" foes="000000" cont="0"/>
        <request index="3" response="000000" foes="000000" cont="0"/>
        <request index="4" response="000000" foes="000000" cont="0"/>
        <request index="5" response="000000" foes="000000" cont="0"/>
    </junction>
    <junction id="5" type="priority" x="150.00" y="50.00" incLanes="L8_0 L8_1 L10_0 L10_1 L10_2" intLanes=":5_0_0 :5_0_1 :5_0_2 :5_3_0 :5_3_1 :5_3_2" shape="154.00,56.40 154.00,40.40 146.00,40.40 146.00,59.60 149.03,58.77 150.97,57.23 152.21,56.64">
        <request index="0" response="000000" foes="000000" cont="0"/>
        <request index="1" response="000000" foes="000000" cont="0"/>
        <request index="2" response="000000" foes="000000" cont="0"/>
        <request index="3" response="000000" foes="000000" cont="0"/>
        <request index="4" response="000000" foes="000000" cont="0"/>
        <request index="5" response="000000" foes="000000" cont="0"/>
    </junction>
    <junction id="6" type="priority" x="100.00" y="50.00" incLanes="L9_0 L9_1 L9_2 L16_0 L16_1 L16_2 L12_0 L12_1 L12_2" intLanes=":6_0_0 :6_0_1 :6_0_2 :6_14_0 :6_15_0 :6_5_0 :6_6_0 :6_7_0 :6_8_0 :6_9_0 :6_10_0 :6_11_0 :6_11_1 :6_11_2" shape="113.60,59.60 113.60,40.40 111.38,39.96 110.60,39.40 110.04,38.62 109.71,37.62 109.60,36.40 90.40,36.40 89.96,38.62 89.40,39.40 88.62,39.96 87.62,40.29 86.40,40.40 86.40,59.60">
        <request index="0"  response="00000000000000" foes="00000100000000" cont="0"/>
        <request index="1"  response="00000000000000" foes="00000100000000" cont="0"/>
        <request index="2"  response="00000000000000" foes="00000100000000" cont="0"/>
        <request index="3"  response="11111000000000" foes="11111100000000" cont="1"/>
        <request index="4"  response="11111000000000" foes="11111100000000" cont="1"/>
        <request index="5"  response="11100000000000" foes="11100000000000" cont="0"/>
        <request index="6"  response="11100000000000" foes="11100000000000" cont="0"/>
        <request index="7"  response="11100000000000" foes="11100000000000" cont="0"/>
        <request index="8"  response="11100000011111" foes="11100000011111" cont="0"/>
        <request index="9"  response="00000000000000" foes="00000000011000" cont="0"/>
        <request index="10" response="00000000000000" foes="00000000011000" cont="0"/>
        <request index="11" response="00000000000000" foes="00000111111000" cont="0"/>
        <request index="12" response="00000000000000" foes="00000111111000" cont="0"/>
        <request index="13" response="00000000000000" foes="00000111111000" cont="0"/>
    </junction>
    <junction id="91" type="dead_end" x="0.00" y="50.00" incLanes="D1_0 D1_1 D1_2" intLanes="" shape="0.00,50.00 0.00,59.60 0.00,50.00"/>
    <junction id="911" type="priority" x="25.00" y="50.00" incLanes="L1_0 L1_1 L1_2 D2_0 D2_1" intLanes=":911_0_0 :911_0_1 :911_0_2 :911_3_0 :911_3_1" shape="25.00,59.60 25.00,43.60 25.00,59.60">
        <request index="0" response="00000" foes="00000" cont="0"/>
        <request index="1" response="00000" foes="00000" cont="0"/>
        <request index="2" response="00000" foes="00000" cont="0"/>
        <request index="3" response="00000" foes="00000" cont="0"/>
        <request index="4" response="00000" foes="00000" cont="0"/>
    </junction>
    <junction id="912" type="priority" x="25.00" y="0.00" incLanes="L3_0 L3_1 L3_2 D4_0 D4_1" intLanes=":912_0_0 :912_0_1 :912_0_2 :912_3_0 :912_3_1" shape="25.00,9.60 25.00,-6.40 25.00,9.60">
        <request index="0" response="00000" foes="00000" cont="0"/>
        <request index="1" response="00000" foes="00000" cont="0"/>
        <request index="2" response="00000" foes="00000" cont="0"/>
        <request index="3" response="00000" foes="00000" cont="0"/>
        <request index="4" response="00000" foes="00000" cont="0"/>
    </junction>
    <junction id="913" type="priority" x="175.00" y="0.00" incLanes="D6_0 D6_1 L5_0 L5_1 L5_2" intLanes=":913_0_0 :913_0_1 :913_2_0 :913_2_1 :913_2_2" shape="175.00,6.40 175.00,-9.60 175.00,6.40">
        <request index="0" response="00000" foes="00000" cont="0"/>
        <request index="1" response="00000" foes="00000" cont="0"/>
        <request index="2" response="00000" foes="00000" cont="0"/>
        <request index="3" response="00000" foes="00000" cont="0"/>
        <request index="4" response="00000" foes="00000" cont="0"/>
    </junction>
    <junction id="914" type="priority" x="175.00" y="50.00" incLanes="D8_0 D8_1 L7_0 L7_1 L7_2" intLanes=":914_0_0 :914_0_1 :914_2_0 :914_2_1 :914_2_2" shape="175.00,56.40 175.00,40.40 175.00,56.40">
        <request index="0" response="00000" foes="00000" cont="0"/>
        <request index="1" response="00000" foes="00000" cont="0"/>
        <request index="2" response="00000" foes="00000" cont="0"/>
        <request index="3" response="00000" foes="00000" cont="0"/>
        <request index="4" response="00000" foes="00000" cont="0"/>
    </junction>
    <junction id="92" type="dead_end" x="0.00" y="0.00" incLanes="D3_0 D3_1 D3_2" intLanes="" shape="0.00,0.00 0.00,9.60 0.00,0.00"/>
    <junction id="93" type="dead_end" x="200.00" y="0.00" incLanes="D5_0 D5_1 D5_2" intLanes="" shape="200.00,0.00 200.00,-9.60 200.00,0.00"/>
    <junction id="94" type="dead_end" x="200.00" y="50.00" incLanes="D7_0 D7_1 D7_2" intLanes="" shape="200.00,50.00 200.00,40.40 200.00,50.00"/>
