<?xml version="1.0" encoding="UTF-8"?>
<nodes xmlns:xsi="http://www.w3.org/2001/XMLSchema-instance" xsi:noNamespaceSchemaLocation="http://sumo.dlr.de/xsd/nodes_file.xsd">
   <node id="91" x="-50.0" y="50.0" />
   <node id="92" x="-50.0" y="0.0" />
   <node id="93" x="150.0" y="0.0" />
   <node id="94" x="+150.0" y="+50.0" />
   <node id="911" x="-25.0" y="+50.0" />
   <node id="912" x="-25.0" y="0.0" />
   <node id="913" x="+125.0" y="0.0" />
   <node id="914" x="125.0" y="+50.0" />
   <node id="1" x="0.0" y="+50.0" /> 
   <node id="2" x="0.0" y="0.0" />
   <node id="3" x="+50.0" y="0.0" />
   <node id="4" x="+100.0" y="0.0" />
   <node id="5" x="+100.0" y="+50.0" />
   <node id="6" x="+50.0" y="+50.0" />
</nodes>