<?xml version="1.0" encoding="UTF-8"?>
<!-- generated on 2019-09-27 13:39:46.446586 by $Id$
  options: -n district-of-columbia.net.xml -r district-of-columbia.rou.xml <doubleminus>period 0.1
-->
<routes xmlns:xsi="http://www.w3.org/2001/XMLSchema-instance" xsi:noNamespaceSchemaLocation="http://sumo.dlr.de/xsd/routes_file.xsd">
    <trip id="0" depart="0.00" from="6055399#14" to="-397316171"/>
    <trip id="1" depart="0.10" from="507033018" to="130917539#6"/>
    <trip id="2" depart="0.20" from="-6058877#0" to="131052430#3"/>
    <trip id="3" depart="0.30" from="590581751" to="6060055#2"/>
    <trip id="4" depart="0.40" from="-345713229#1" to="397325599"/>
    <trip id="5" depart="0.50" from="6059940#3" to="86982842#2"/>
    <trip id="6" depart="0.60" from="6055457#0" to="130927105#1"/>
    <trip id="7" depart="0.70" from="-6061510#14" to="-590581691#2"/>
    <trip id="8" depart="0.80" from="330765029#2" to="130908179#15"/>
    <trip id="9" depart="0.90" from="-6063040#9" to="357529714#4"/>
    <trip id="10" depart="1.00" from="535548806#6" to="497184701"/>
    <trip id="11" depart="1.10" from="6054899#3" to="6054440#1"/>
    <trip id="12" depart="1.20" from="-6062127#2" to="132635304#11"/>
    <trip id="13" depart="1.30" from="6051500" to="481821727#9"/>
    <trip id="14" depart="1.40" from="-131052372#0" to="6057566#1"/>
    <trip id="15" depart="1.50" from="6062029#0" to="24217341#1"/>
    <trip id="16" depart="1.60" from="392388948#5" to="-6058586#12"/>
    <trip id="17" depart="1.70" from="-130927052#15" to="397277245"/>
    <trip id="18" depart="1.80" from="131240428#3" to="-6052631#3"/>
    <trip id="19" depart="1.90" from="553575509#0" to="6109295#1"/>
    <trip id="20" depart="2.00" from="-302630836#1" to="6057076"/>
    <trip id="21" depart="2.10" from="130917547" to="6057607#2"/>
    <trip id="22" depart="2.20" from="50427246#0" to="49999718#1"/>
    <trip id="23" depart="2.30" from="130908240#4" to="50427051#1"/>
    <trip id="24" depart="2.40" from="-484886938#3" to="-130754654#0"/>
    <trip id="25" depart="2.50" from="-204597276#1" to="49085300"/>
    <trip id="26" depart="2.60" from="455065246#0" to="-130927049#8"/>
    <trip id="27" depart="2.70" from="-130802371#1" to="-6061408#2"/>
    <trip id="28" depart="2.80" from="6061224#5" to="-6058497#0"/>
    <trip id="29" depart="2.90" from="-664055502#0" to="-112268481#1"/>
    <trip id="30" depart="3.00" from="6059039#0" to="-6062422#0"/>
    <trip id="31" depart="3.10" from="50795344#2" to="583906906#1"/>
    <trip id="32" depart="3.20" from="686384827#8" to="6062106"/>
    <trip id="33" depart="3.30" from="-6062958#3" to="6054359#5"/>
    <trip id="34" depart="3.40" from="6061440#0" to="-132777773#1"/>
    <trip id="35" depart="3.50" from="6057193#1" to="6062967#0"/>
    <trip id="36" depart="3.60" from="-6063434#0" to="-6060166#2"/>
    <trip id="37" depart="3.70" from="6054413#3" to="-6054169#3"/>
    <trip id="38" depart="3.80" from="132686590#10" to="6051600#1"/>
    <trip id="39" depart="3.90" from="-202992520#8" to="6055579#1"/>
    <trip id="40" depart="4.00" from="-6056404#4" to="-479469527#1"/>
    <trip id="41" depart="4.10" from="-6056078#5" to="-6060886#2"/>
    <trip id="42" depart="4.20" from="-6111721#0" to="6059928"/>
    <trip id="43" depart="4.30" from="-132776154#0" to="6055625#3"/>
    <trip id="44" depart="4.40" from="401096883" to="321158128#1"/>
    <trip id="45" depart="4.50" from="271115526#0" to="6059823#7"/>
    <trip id="46" depart="4.60" from="563294014#0" to="6054111#2"/>
    <trip id="47" depart="4.70" from="6061541#2" to="130808344#0"/>
    <trip id="48" depart="4.80" from="81139670#3" to="-6056891#1"/>
    <trip id="49" depart="4.90" from="468494292" to="380165561#2"/>
    <trip id="50" depart="5.00" from="-6061408#5" to="132601121#2"/>
    <trip id="51" depart="5.10" from="-86982248#0" to="6057779#6"/>
    <trip id="52" depart="5.20" from="-6055817#2" to="-6060844#1"/>
    <trip id="53" depart="5.30" from="-130908219#0" to="215306712#3"/>
    <trip id="54" depart="5.40" from="-6058962#3" to="584283818"/>
    <trip id="55" depart="5.50" from="6058586#10" to="6061348#12"/>
    <trip id="56" depart="5.60" from="50477464#1" to="-6058036#0"/>
    <trip id="57" depart="5.70" from="468440014#1" to="6062439#2"/>
    <trip id="58" depart="5.80" from="-583950842#3" to="398810876#2"/>
    <trip id="59" depart="5.90" from="6060094#1" to="6054521#2"/>
    <trip id="60" depart="6.00" from="-86982249#2" to="51246393#0"/>
    <trip id="61" depart="6.10" from="476103812" to="130808348#2"/>
    <trip id="62" depart="6.20" from="-86982236#7" to="6054311"/>
    <trip id="63" depart="6.30" from="146537587#1" to="-683994860#1"/>
    <trip id="64" depart="6.40" from="6063385#3" to="6123669#0"/>
    <trip id="65" depart="6.50" from="70948803#1" to="50773195#0"/>
    <trip id="66" depart="6.60" from="-6057281#0" to="130927062#1"/>
    <trip id="67" depart="6.70" from="650590852" to="131052420#2"/>
    <trip id="68" depart="6.80" from="507341800#2" to="-6061399#1"/>
    <trip id="69" depart="6.90" from="-133496797#0" to="6054125"/>
    <trip id="70" depart="7.00" from="535489416#8" to="6059519#11"/>
    <trip id="71" depart="7.10" from="104456359#3" to="-481337644#3"/>
    <trip id="72" depart="7.20" from="-130676637#2" to="6056636#0"/>
    <trip id="73" depart="7.30" from="6054455#2" to="-274573721#6"/>
    <trip id="74" depart="7.40" from="106159403#13" to="346627385#26"/>
    <trip id="75" depart="7.50" from="130889734#2" to="-6061510#25"/>
    <trip id="76" depart="7.60" from="-6056977#5" to="334625930#3"/>
    <trip id="77" depart="7.70" from="-6062822#0" to="-131462989#5"/>
    <trip id="78" depart="7.80" from="-6060886#1" to="-50429516"/>
    <trip id="79" depart="7.90" from="-87150518#1" to="86982248#1"/>
    <trip id="80" depart="8.00" from="81139664#0" to="-403570354#2"/>
    <trip id="81" depart="8.10" from="131052374#0" to="131520209#2"/>
    <trip id="82" depart="8.20" from="-6059076#3" to="-484898648#2"/>
    <trip id="83" depart="8.30" from="-97167289" to="6057081#4"/>
    <trip id="84" depart="8.40" from="-130927104#1" to="6063342#0"/>
    <trip id="85" depart="8.50" from="-6058044" to="50842700#1"/>
    <trip id="86" depart="8.60" from="392354731" to="-130285117#1"/>
    <trip id="87" depart="8.70" from="6061036#1" to="-86982236#6"/>
    <trip id="88" depart="8.80" from="108402598#3" to="-435134458#2"/>
    <trip id="89" depart="8.90" from="-68358970" to="107269517#8"/>
    <trip id="90" depart="9.00" from="-130908067#0" to="6057249"/>
    <trip id="91" depart="9.10" from="496744838" to="6061224#1"/>
    <trip id="92" depart="9.20" from="6061505#1" to="6053882#0"/>
    <trip id="93" depart="9.30" from="553575447#0" to="397277578#1"/>
    <trip id="94" depart="9.40" from="-345713223#2" to="131463034#5"/>
    <trip id="95" depart="9.50" from="132601120#13" to="-294891267#2"/>
    <trip id="96" depart="9.60" from="618280376#0" to="-6063275#0"/>
    <trip id="97" depart="9.70" from="77449633#11" to="495228527#2"/>
    <trip id="98" depart="9.80" from="397339880" to="725051008"/>
    <trip id="99" depart="9.90" from="6060878#1" to="-50866146"/>
    <trip id="100" depart="10.00" from="-589551080#3" to="6056950#1"/>
    <trip id="101" depart="10.10" from="308745784#0" to="-6054647#2"/>
    <trip id="102" depart="10.20" from="590581774#5" to="548177713#9"/>
    <trip id="103" depart="10.30" from="6061868#7" to="6060861"/>
    <trip id="104" depart="10.40" from="112268482" to="-118659352"/>
    <trip id="105" depart="10.50" from="50773201" to="-6059992#5"/>
    <trip id="106" depart="10.60" from="397319281#1" to="6061020#1"/>
    <trip id="107" depart="10.70" from="-468437326" to="-340368804#0"/>
    <trip id="108" depart="10.80" from="367202615#0" to="6057038#5"/>
    <trip id="109" depart="10.90" from="6063282#6" to="509327300"/>
    <trip id="110" depart="11.00" from="-468437135#0" to="6062103#18"/>
    <trip id="111" depart="11.10" from="6063083#0" to="27923411"/>
    <trip id="112" depart="11.20" from="-397278029" to="514215560#1"/>
    <trip id="113" depart="11.30" from="-484884439#2" to="296753118#1"/>
    <trip id="114" depart="11.40" from="345633935#0" to="6051895"/>
    <trip id="115" depart="11.50" from="6057654#0" to="104456343#0"/>
    <trip id="116" depart="11.60" from="29961210#4" to="-6063194#3"/>
    <trip id="117" depart="11.70" from="-648005848#14" to="-6058259#1"/>
    <trip id="118" depart="11.80" from="286361077#2" to="6054689#3"/>
    <trip id="119" depart="11.90" from="6057342#1" to="-6060440#2"/>
    <trip id="120" depart="12.00" from="86982843#4" to="521659767#1"/>
    <trip id="121" depart="12.10" from="-6058655#12" to="683448505#2"/>
    <trip id="122" depart="12.20" from="-133496797#1" to="-6056562#1"/>
    <trip id="123" depart="12.30" from="589905629#2" to="469149095"/>
    <trip id="124" depart="12.40" from="6061844" to="6057652#12"/>
    <trip id="125" depart="12.50" from="468421281#1" to="6061232#3"/>
    <trip id="126" depart="12.60" from="-589539502#0" to="397296277#5"/>
    <trip id="127" depart="12.70" from="427034163#0" to="361447660#2"/>
    <trip id="128" depart="12.80" from="-294891310#1" to="234706402#3"/>
    <trip id="129" depart="12.90" from="6055045#11" to="-6062565#1"/>
    <trip id="130" depart="13.00" from="-6057443#2" to="27874570#4"/>
    <trip id="131" depart="13.10" from="130927084#3" to="-130802353#1"/>
    <trip id="132" depart="13.20" from="318314602#0" to="-495197209#0"/>
    <trip id="133" depart="13.30" from="-6059723#7" to="354202762"/>
    <trip id="134" depart="13.40" from="6058586#1" to="-33968348#2"/>
    <trip id="135" depart="13.50" from="583903309#4" to="-450581690#4"/>
    <trip id="136" depart="13.60" from="-421789039#4" to="86982251#0"/>
    <trip id="137" depart="13.70" from="130908231" to="-6063259#2"/>
    <trip id="138" depart="13.80" from="6062880#6" to="-6054826#2"/>
    <trip id="139" depart="13.90" from="121782027#0" to="514718706#0"/>
    <trip id="140" depart="14.00" from="-132601120#12" to="-6061051#0"/>
    <trip id="141" depart="14.10" from="6054540#1" to="130917534#16"/>
    <trip id="142" depart="14.20" from="-6063061#1" to="-589551011#1"/>
    <trip id="143" depart="14.30" from="-514433132#14" to="6061999#14"/>
    <trip id="144" depart="14.40" from="112433936#9" to="-130908179#5"/>
    <trip id="145" depart="14.50" from="-50524880#9" to="121980263"/>
    <trip id="146" depart="14.60" from="-6053823#6" to="-6054149#1"/>
    <trip id="147" depart="14.70" from="50711017#2" to="520468343#1"/>
    <trip id="148" depart="14.80" from="291918155" to="-253129352#0"/>
    <trip id="149" depart="14.90" from="-29235013#2" to="-468393594"/>
    <trip id="150" depart="15.00" from="-683223868#1" to="131052457#0"/>
    <trip id="151" depart="15.10" from="6061395#2" to="6144168#0"/>
    <trip id="152" depart="15.20" from="-131052542#2" to="135146244#1"/>
    <trip id="153" depart="15.30" from="684178160#4" to="-29234996#1"/>
    <trip id="154" depart="15.40" from="-6060055#2" to="6061692#1"/>
    <trip id="155" depart="15.50" from="-507033020" to="637769144#1"/>
    <trip id="156" depart="15.60" from="130908212#0" to="590581515#0"/>
    <trip id="157" depart="15.70" from="-6061379#1" to="6054414#4"/>
    <trip id="158" depart="15.80" from="-6058658#6" to="321476518#0"/>
    <trip id="159" depart="15.90" from="355230036" to="-696198848#2"/>
    <trip id="160" depart="16.00" from="132577674#1" to="581729865"/>
    <trip id="161" depart="16.10" from="130917536#0" to="6061029#1"/>
    <trip id="162" depart="16.20" from="-6062890#0" to="-6058525#2"/>
    <trip id="163" depart="16.30" from="496917752" to="-133914377#3"/>
    <trip id="164" depart="16.40" from="460535272#0" to="354419215"/>
    <trip id="165" depart="16.50" from="132601123#0" to="488395333"/>
    <trip id="166" depart="16.60" from="689663921#5" to="250712157"/>
    <trip id="167" depart="16.70" from="-467428116#0" to="590581718#1"/>
    <trip id="168" depart="16.80" from="6055490#2" to="-6058832#5"/>
    <trip id="169" depart="16.90" from="-6054378" to="-480601892#1"/>
    <trip id="170" depart="17.00" from="6060904#0" to="6062421#0"/>
    <trip id="171" depart="17.10" from="-6055417#5" to="-590525536#1"/>
    <trip id="172" depart="17.20" from="6056535#7" to="251279278"/>
    <trip id="173" depart="17.30" from="590581626#3" to="6058551#5"/>
    <trip id="174" depart="17.40" from="130764273#5" to="-6059805#1"/>
    <trip id="175" depart="17.50" from="-6054396" to="6061941#3"/>
    <trip id="176" depart="17.60" from="6059671#8" to="275390590#10"/>
    <trip id="177" depart="17.70" from="6054403#19" to="-553575474"/>
    <trip id="178" depart="17.80" from="131520161#4" to="-131463034#5"/>
    <trip id="179" depart="17.90" from="637453301#1" to="6055283#2"/>
    <trip id="180" depart="18.00" from="170279262#11" to="6061454#1"/>
    <trip id="181" depart="18.10" from="6058124#6" to="6060504#3"/>
    <trip id="182" depart="18.20" from="-131052528#12" to="6052713"/>
    <trip id="183" depart="18.30" from="-6054364#0" to="6063327#1"/>
    <trip id="184" depart="18.40" from="-6055065#3" to="6056084#1"/>
    <trip id="185" depart="18.50" from="-6061037#1" to="-170157730#2"/>
    <trip id="186" depart="18.60" from="590525585#1" to="-6055705#7"/>
    <trip id="187" depart="18.70" from="50427964" to="345633935#8"/>
    <trip id="188" depart="18.80" from="-484884439#2" to="6061473#7"/>
    <trip id="189" depart="18.90" from="-6061689#0" to="590525560#2"/>
    <trip id="190" depart="19.00" from="132895061#7" to="6062650#5"/>
    <trip id="191" depart="19.10" from="6054329#1" to="-6058655#9"/>
    <trip id="192" depart="19.20" from="6061312" to="6059916#7"/>
    <trip id="193" depart="19.30" from="6057221#1" to="-132892239#3"/>
    <trip id="194" depart="19.40" from="148773140#0" to="6060483#2"/>
    <trip id="195" depart="19.50" from="397284494#0" to="302610250#1"/>
    <trip id="196" depart="19.60" from="-67762310#23" to="6053819#1"/>
    <trip id="197" depart="19.70" from="-666147907#2" to="121980315"/>
    <trip id="198" depart="19.80" from="6063197#14" to="401096878#2"/>
    <trip id="199" depart="19.90" from="-6057581#1" to="6058457#5"/>
    <trip id="200" depart="20.00" from="-288579361#5" to="-491308953"/>
    <trip id="201" depart="20.10" from="130285144#4" to="-6059916#6"/>
    <trip id="202" depart="20.20" from="6058206#2" to="-6053625#1"/>
    <trip id="203" depart="20.30" from="297368625#5" to="559216246#9"/>
    <trip id="204" depart="20.40" from="-131052335#2" to="-421781133#1"/>
    <trip id="205" depart="20.50" from="684004788#4" to="130889723"/>
    <trip id="206" depart="20.60" from="-6054676" to="-6055905#1"/>
    <trip id="207" depart="20.70" from="6058845#0" to="278391865"/>
    <trip id="208" depart="20.80" from="637513796#1" to="-6058119#13"/>
    <trip id="209" depart="20.90" from="271115526#0" to="50495430"/>
    <trip id="210" depart="21.00" from="-6059519#31" to="-590581603#3"/>
    <trip id="211" depart="21.10" from="397354452#0" to="131112413#8"/>
    <trip id="212" depart="21.20" from="722049622#3" to="553575448#0"/>
    <trip id="213" depart="21.30" from="-6055406#8" to="6051837"/>
    <trip id="214" depart="21.40" from="-6054756#3" to="112454531#4"/>
    <trip id="215" depart="21.50" from="6058658#5" to="-6060788#2"/>
    <trip id="216" depart="21.60" from="459035047#1" to="-6056171#1"/>
    <trip id="217" depart="21.70" from="-6063161" to="397331586#0"/>
    <trip id="218" depart="21.80" from="-6055251" to="710050879"/>
    <trip id="219" depart="21.90" from="50466207#3" to="6061162#3"/>
    <trip id="220" depart="22.00" from="131052519#3" to="6061456#2"/>
    <trip id="221" depart="22.10" from="-637453289#3" to="-6059879#4"/>
    <trip id="222" depart="22.20" from="6063277#1" to="-6061510#3"/>
    <trip id="223" depart="22.30" from="132638130#0" to="-130285136#2"/>
    <trip id="224" depart="22.40" from="-77451944#5" to="130908107#19"/>
    <trip id="225" depart="22.50" from="589905686#3" to="6059783#1"/>
    <trip id="226" depart="22.60" from="6061234#1" to="-6059775#1"/>
    <trip id="227" depart="22.70" from="-131052504#3" to="130908128#1"/>
    <trip id="228" depart="22.80" from="-87144376#6" to="6059711#0"/>
    <trip id="229" depart="22.90" from="87872634#2" to="-6055520#2"/>
    <trip id="230" depart="23.00" from="468835414#3" to="50773205"/>
    <trip id="231" depart="23.10" from="-6060433#12" to="506975707#0"/>
    <trip id="232" depart="23.20" from="6057326#2" to="6062895#6"/>
    <trip id="233" depart="23.30" from="50431288#1" to="-6062693#5"/>
    <trip id="234" depart="23.40" from="130676634#0" to="38061557#4"/>
    <trip id="235" depart="23.50" from="-397330837#2" to="297273917"/>
    <trip id="236" depart="23.60" from="170157722#4" to="-127864485#9"/>
    <trip id="237" depart="23.70" from="-6057172#2" to="6062775"/>
    <trip id="238" depart="23.80" from="130908153#7" to="6054043#12"/>
    <trip id="239" depart="23.90" from="6055590#5" to="425410481#1"/>
    <trip id="240" depart="24.00" from="125568095#6" to="6061777#1"/>
    <trip id="241" depart="24.10" from="590581625#1" to="130927103#4"/>
    <trip id="242" depart="24.20" from="50712410" to="6062355#1"/>
    <trip id="243" depart="24.30" from="-215309357#1" to="-6057809#0"/>
    <trip id="244" depart="24.40" from="-130917535#2" to="584283818"/>
    <trip id="245" depart="24.50" from="6058031#1" to="-397345892#0"/>
    <trip id="246" depart="24.60" from="397317000" to="-495014822#0"/>
    <trip id="247" depart="24.70" from="-6055095#3" to="-275390593#3"/>
    <trip id="248" depart="24.80" from="6059818#2" to="-590581711#0"/>
    <trip id="249" depart="24.90" from="-321002383#2" to="294891243#0"/>
    <trip id="250" depart="25.00" from="333922462#1" to="-583955321"/>
    <trip id="251" depart="25.10" from="397280354" to="435101939"/>
    <trip id="252" depart="25.20" from="6061639#2" to="-589533512#1"/>
    <trip id="253" depart="25.30" from="696198869#1" to="535548806#31"/>
    <trip id="254" depart="25.40" from="47969697#5" to="56235601#3"/>
    <trip id="255" depart="25.50" from="-583868273#1" to="6057324"/>
    <trip id="256" depart="25.60" from="130908005#2" to="131112403#0"/>
    <trip id="257" depart="25.70" from="6058807#1" to="-590598887#2"/>
    <trip id="258" depart="25.80" from="130908296#2" to="130754653"/>
    <trip id="259" depart="25.90" from="6061350#0" to="-6058558#7"/>
    <trip id="260" depart="26.00" from="6060266#0" to="564016283#1"/>
    <trip id="261" depart="26.10" from="50757341#1" to="130889754#1"/>
    <trip id="262" depart="26.20" from="583953651#2" to="6057483#1"/>
    <trip id="263" depart="26.30" from="6062471#1" to="-6061198#0"/>
    <trip id="264" depart="26.40" from="697832894#0" to="6058461#3"/>
    <trip id="265" depart="26.50" from="514433132#18" to="6062103#12"/>
    <trip id="266" depart="26.60" from="590581572#1" to="6063356#5"/>
    <trip id="267" depart="26.70" from="131520148#10" to="6051798#1"/>
    <trip id="268" depart="26.80" from="-6057150#0" to="6057978#0"/>
    <trip id="269" depart="26.90" from="6058539#1" to="589550996#1"/>
    <trip id="270" depart="27.00" from="-6062451#2" to="-6055551#8"/>
    <trip id="271" depart="27.10" from="320991919#5" to="131463034#12"/>
    <trip id="272" depart="27.20" from="50464019#8" to="-376242126#0"/>
    <trip id="273" depart="27.30" from="-535484144" to="-514433132#15"/>
    <trip id="274" depart="27.40" from="-67762310#21" to="106880764#1"/>
    <trip id="275" depart="27.50" from="427653393#2" to="6053625#1"/>
    <trip id="276" depart="27.60" from="-6059357#3" to="130444170#25"/>
    <trip id="277" depart="27.70" from="-6058852#1" to="-590525523"/>
    <trip id="278" depart="27.80" from="-6109576#1" to="234731527"/>
    <trip id="279" depart="27.90" from="50515734#0" to="130908218#0"/>
    <trip id="280" depart="28.00" from="6058893#0" to="6063277#0"/>
    <trip id="281" depart="28.10" from="-581824579#6" to="-6058962#0"/>
    <trip id="282" depart="28.20" from="-131520097#9" to="130788207#8"/>
    <trip id="283" depart="28.30" from="67762310#7" to="-6062695#0"/>
    <trip id="284" depart="28.40" from="117117769#1" to="-130908285#4"/>
    <trip id="285" depart="28.50" from="6058403#5" to="-640521944#4"/>
    <trip id="286" depart="28.60" from="6061853#1" to="-130808342#6"/>
    <trip id="287" depart="28.70" from="346627385#24" to="590598902#0"/>
    <trip id="288" depart="28.80" from="203022901#0" to="87148938#2"/>
    <trip id="289" depart="28.90" from="-575569267#11" to="6061240#1"/>
    <trip id="290" depart="29.00" from="662267621#0" to="130927104#2"/>
    <trip id="291" depart="29.10" from="-6061155#1" to="475922624#0"/>
    <trip id="292" depart="29.20" from="296797874#3" to="-6057342#3"/>
    <trip id="293" depart="29.30" from="6062431#3" to="6063068#1"/>
    <trip id="294" depart="29.40" from="402266061#6" to="6061685#1"/>
    <trip id="295" depart="29.50" from="-117090353" to="-297254921"/>
    <trip id="296" depart="29.60" from="-6061441#13" to="-6060585#1"/>
    <trip id="297" depart="29.70" from="6058119#1" to="131240447"/>
    <trip id="298" depart="29.80" from="-123534409#1" to="6055042#1"/>
    <trip id="299" depart="29.90" from="130764316#1" to="-87150468#0"/>
    <trip id="300" depart="30.00" from="-6054687#2" to="-50760311#3"/>
    <trip id="301" depart="30.10" from="278160405" to="50420005#7"/>
    <trip id="302" depart="30.20" from="203010874#1" to="6055550#13"/>
    <trip id="303" depart="30.30" from="520471184" to="-6056686#21"/>
    <trip id="304" depart="30.40" from="6062332#2" to="589551024#6"/>
    <trip id="305" depart="30.50" from="131118557#15" to="-6052974#4"/>
    <trip id="306" depart="30.60" from="143920443" to="6054290#1"/>
    <trip id="307" depart="30.70" from="-6055870#6" to="548106911#2"/>
    <trip id="308" depart="30.80" from="-6056940#6" to="590598929#1"/>
    <trip id="309" depart="30.90" from="696063548#0" to="-294891266#2"/>
    <trip id="310" depart="31.00" from="297294792#1" to="535462247#1"/>
    <trip id="311" depart="31.10" from="-117116046#2" to="6054549#1"/>
    <trip id="312" depart="31.20" from="520474167#1" to="6056877"/>
    <trip id="313" depart="31.30" from="-6061114#1" to="6056102#1"/>
    <trip id="314" depart="31.40" from="50715840" to="130908232#25"/>
    <trip id="315" depart="31.50" from="468480214#2" to="-50530100#2"/>
    <trip id="316" depart="31.60" from="131463021#4" to="6061061#3"/>
    <trip id="317" depart="31.70" from="553317606#5" to="583953651#1"/>
    <trip id="318" depart="31.80" from="6060569#0" to="275390589#4"/>
    <trip id="319" depart="31.90" from="-294891305#1" to="397277574"/>
    <trip id="320" depart="32.00" from="292148139#0" to="6056943#0"/>
    <trip id="321" depart="32.10" from="86982254#8" to="683999550#2"/>
    <trip id="322" depart="32.20" from="-77449775#13" to="-6059980"/>
    <trip id="323" depart="32.30" from="-181357089#3" to="-6061683#6"/>
    <trip id="324" depart="32.40" from="6057501#2" to="130764288#0"/>
    <trip id="325" depart="32.50" from="29961157#5" to="106159403#11"/>
    <trip id="326" depart="32.60" from="454833746#5" to="-131052420#1"/>
    <trip id="327" depart="32.70" from="352831076#5" to="130908265#1"/>
    <trip id="328" depart="32.80" from="-535538703#1" to="-86982254#1"/>
    <trip id="329" depart="32.90" from="-130927039#7" to="-6061369#1"/>
    <trip id="330" depart="33.00" from="-6062451#0" to="6059519#45"/>
    <trip id="331" depart="33.10" from="367694949#0" to="-6057603#0"/>
    <trip id="332" depart="33.20" from="637769144#1" to="-6054398#1"/>
    <trip id="333" depart="33.30" from="-109431927#1" to="-6057368#10"/>
    <trip id="334" depart="33.40" from="-6054261#8" to="6056948#7"/>
    <trip id="335" depart="33.50" from="-396669570" to="6060982#1"/>
    <trip id="336" depart="33.60" from="109672314#1" to="-6059519#3"/>
    <trip id="337" depart="33.70" from="6061889#5" to="135146244#1"/>
    <trip id="338" depart="33.80" from="87211939#3" to="6061473#0"/>
    <trip id="339" depart="33.90" from="130772884#0" to="6056290"/>
    <trip id="340" depart="34.00" from="590581645#0" to="6054167#1"/>
    <trip id="341" depart="34.10" from="6056694#19" to="686384827#4"/>
    <trip id="342" depart="34.20" from="352698512#0" to="-6063281#12"/>
    <trip id="343" depart="34.30" from="281677977#1" to="-521659142#3"/>
    <trip id="344" depart="34.40" from="-6055792" to="696198838#5"/>
    <trip id="345" depart="34.50" from="-6063086#4" to="468446544"/>
    <trip id="346" depart="34.60" from="-586326622#0" to="87468945#1"/>
    <trip id="347" depart="34.70" from="6061701#0" to="6061354#11"/>
    <trip id="348" depart="34.80" from="6055503#3" to="-6056268#4"/>
    <trip id="349" depart="34.90" from="-6056686#9" to="-6055106#3"/>
    <trip id="350" depart="35.00" from="-6054507#0" to="120908526#1"/>
    <trip id="351" depart="35.10" from="6055122#1" to="6061868#5"/>
    <trip id="352" depart="35.20" from="-38605849#1" to="6056323#7"/>
    <trip id="353" depart="35.30" from="50501880#2" to="-6062419#1"/>
    <trip id="354" depart="35.40" from="362668008#1" to="-131520207"/>
    <trip id="355" depart="35.50" from="6051856#0" to="445261783"/>
    <trip id="356" depart="35.60" from="-484884439#8" to="6060558#2"/>
    <trip id="357" depart="35.70" from="627723196" to="6056948#6"/>
    <trip id="358" depart="35.80" from="130764316#5" to="397352785#0"/>
    <trip id="359" depart="35.90" from="-581831501#1" to="-6063231#1"/>
    <trip id="360" depart="36.00" from="6058157#1" to="6053702#1"/>
    <trip id="361" depart="36.10" from="-6054245#1" to="6058558#8"/>
    <trip id="362" depart="36.20" from="-132895061#0" to="296790090"/>
    <trip id="363" depart="36.30" from="26707840#0" to="-6055006#1"/>
    <trip id="364" depart="36.40" from="-469165492" to="-131520097#3"/>
    <trip id="365" depart="36.50" from="-580779970" to="-52054175#9"/>
    <trip id="366" depart="36.60" from="6052634" to="-86982242#0"/>
    <trip id="367" depart="36.70" from="429064662#4" to="109431926#0"/>
    <trip id="368" depart="36.80" from="-6054855" to="-323192759#0"/>
    <trip id="369" depart="36.90" from="-112343443" to="-130927038#0"/>
    <trip id="370" depart="37.00" from="397286179" to="6056910#3"/>
    <trip id="371" depart="37.10" from="111474629#3" to="367198560#3"/>
    <trip id="372" depart="37.20" from="-324109639#2" to="-6061490#0"/>
    <trip id="373" depart="37.30" from="6054960#5" to="47916242"/>
    <trip id="374" depart="37.40" from="590598895#3" to="-112318783#0"/>
    <trip id="375" depart="37.50" from="6055041#3" to="71449615#8"/>
    <trip id="376" depart="37.60" from="116786022#1" to="132601723#0"/>
    <trip id="377" depart="37.70" from="-131520161#7" to="131052497#0"/>
    <trip id="378" depart="37.80" from="-50513891#0" to="6055924#6"/>
    <trip id="379" depart="37.90" from="-6061869#4" to="-6057283#4"/>
    <trip id="380" depart="38.00" from="-50513891#3" to="6063402#3"/>
    <trip id="381" depart="38.10" from="708853145" to="6053707#5"/>
    <trip id="382" depart="38.20" from="-6062241#3" to="6057262"/>
    <trip id="383" depart="38.30" from="-6060439#2" to="6055584#0"/>
    <trip id="384" depart="38.40" from="402278203#1" to="131052330#3"/>
    <trip id="385" depart="38.50" from="131520203#11" to="-6062300#1"/>
    <trip id="386" depart="38.60" from="-589551020" to="-434444693#2"/>
    <trip id="387" depart="38.70" from="-6053543#3" to="6062548#2"/>
    <trip id="388" depart="38.80" from="131112413#4" to="380165547#2"/>
    <trip id="389" depart="38.90" from="272981356#5" to="589905548"/>
    <trip id="390" depart="39.00" from="6055604#4" to="6061917"/>
    <trip id="391" depart="39.10" from="362659444#4" to="520472517"/>
    <trip id="392" depart="39.20" from="6062999#0" to="6059311#0"/>
    <trip id="393" depart="39.30" from="-6055473#5" to="6056943#3"/>
    <trip id="394" depart="39.40" from="50530258#0" to="403682816"/>
    <trip id="395" depart="39.50" from="6057629#1" to="6055658#5"/>
    <trip id="396" depart="39.60" from="-6062584#2" to="-6058503#0"/>
    <trip id="397" depart="39.70" from="-6061228#1" to="131520205#4"/>
    <trip id="398" depart="39.80" from="-6055418#26" to="590598914#1"/>
    <trip id="399" depart="39.90" from="6053861#1" to="-131118564#0"/>
    <trip id="400" depart="40.00" from="436136930#4" to="397293016#2"/>
    <trip id="401" depart="40.10" from="-328878013" to="-6061587"/>
    <trip id="402" depart="40.20" from="-583906908#0" to="476103807"/>
    <trip id="403" depart="40.30" from="297273916#1" to="130927004#2"/>
    <trip id="404" depart="40.40" from="-24963154" to="-6057655#0"/>
    <trip id="405" depart="40.50" from="440167424#3" to="130889721#3"/>
    <trip id="406" depart="40.60" from="-397289273#1" to="296936313"/>
    <trip id="407" depart="40.70" from="-509325914" to="50429764#1"/>
    <trip id="408" depart="40.80" from="589905706#3" to="-6054413#9"/>
    <trip id="409" depart="40.90" from="-6056984#3" to="6056947#2"/>
    <trip id="410" depart="41.00" from="6062961#1" to="321158128#1"/>
    <trip id="411" depart="41.10" from="-6059020#1" to="6052732"/>
    <trip id="412" depart="41.20" from="-6056757#1" to="6063042#0"/>
    <trip id="413" depart="41.30" from="427653393#5" to="-50501880#0"/>
    <trip id="414" depart="41.40" from="-6059958#2" to="130908292#2"/>
    <trip id="415" depart="41.50" from="6055707#1" to="67762309#1"/>
    <trip id="416" depart="41.60" from="-6060012" to="380165547#0"/>
    <trip id="417" depart="41.70" from="6052813" to="-130927084#1"/>
    <trip id="418" depart="41.80" from="-6060452#2" to="468480214#4"/>
    <trip id="419" depart="41.90" from="131520210#3" to="6061159"/>
    <trip id="420" depart="42.00" from="-6055616#0" to="-77449646#1"/>
    <trip id="421" depart="42.10" from="-130908268#5" to="-583907229#3"/>
    <trip id="422" depart="42.20" from="50431283#1" to="627179483"/>
    <trip id="423" depart="42.30" from="276679655#3" to="-6054316#5"/>