<?xml version="1.0" encoding="UTF-8"?>
<!-- generated on 2019-09-27 07:10:24.919254 by $Id$
  options: -n district-of-columbia.net.xml -r district-of-columbia.rou.xml <doubleminus>period 1
-->
<routes xmlns:xsi="http://www.w3.org/2001/XMLSchema-instance" xsi:noNamespaceSchemaLocation="http://sumo.dlr.de/xsd/routes_file.xsd">
    <trip id="0" depart="0.00" from="6061456#2" to="6051300"/>
    <trip id="1" depart="1.00" from="514718706#6" to="6057926#1"/>
    <trip id="2" depart="2.00" from="-294891267#6" to="640520776#0"/>
    <trip id="3" depart="3.00" from="6055994#0" to="-589905401#0"/>
    <trip id="4" depart="4.00" from="-131144295#4" to="488465995"/>
    <trip id="5" depart="5.00" from="-347003327#1" to="-131052287#0"/>
    <trip id="6" depart="6.00" from="346627385#28" to="539496571#0"/>
    <trip id="7" depart="7.00" from="86982244#6" to="-6052686"/>
    <trip id="8" depart="8.00" from="6056538#2" to="-468440673#0"/>
    <trip id="9" depart="9.00" from="-6058501#0" to="29961103#0"/>
    <trip id="10" depart="10.00" from="6054808#2" to="6058249#0"/>
    <trip id="11" depart="11.00" from="-6058087#5" to="-6716410#0"/>
    <trip id="12" depart="12.00" from="130889714" to="-553575466#3"/>
    <trip id="13" depart="13.00" from="590525555#2" to="-542019869#3"/>
    <trip id="14" depart="14.00" from="-344674243#4" to="-6055573#4"/>
    <trip id="15" depart="15.00" from="6054369#1" to="-81139671#0"/>
    <trip id="16" depart="16.00" from="132601122#0" to="708853143#3"/>
    <trip id="17" depart="17.00" from="6058613#2" to="-589539494#3"/>
    <trip id="18" depart="18.00" from="397321704#1" to="298584821#1"/>
    <trip id="19" depart="19.00" from="6061020#3" to="-6061122#0"/>
    <trip id="20" depart="20.00" from="237755397#0" to="-468835427#1"/>
    <trip id="21" depart="21.00" from="-6061020#3" to="-6055569#5"/>
    <trip id="22" depart="22.00" from="-6055558" to="130889691#1"/>
    <trip id="23" depart="23.00" from="6062189#2" to="50468674#0"/>
    <trip id="24" depart="24.00" from="-448751685" to="6055596#2"/>
    <trip id="25" depart="25.00" from="6053651#0" to="6053828"/>
    <trip id="26" depart="26.00" from="6063345#2" to="130927016"/>
    <trip id="27" depart="27.00" from="203010878#1" to="6061701#1"/>
    <trip id="28" depart="28.00" from="6058518#2" to="6054293#2"/>
    <trip id="29" depart="29.00" from="6058679#4" to="6053651#1"/>
    <trip id="30" depart="30.00" from="6057326#2" to="6055625#4"/>
    <trip id="31" depart="31.00" from="-690441277" to="537114618#0"/>
    <trip id="32" depart="32.00" from="132601724#9" to="6062211#4"/>
    <trip id="33" depart="33.00" from="-590581596#7" to="6058985#3"/>
    <trip id="34" depart="34.00" from="-468447421" to="-6061988#2"/>
    <trip id="35" depart="35.00" from="-6055914#2" to="321476519#2"/>
    <trip id="36" depart="36.00" from="296355028#1" to="130285144#5"/>
    <trip id="37" depart="37.00" from="367876131#3" to="468435337#0"/>
    <trip id="38" depart="38.00" from="-537141260" to="50758468#0"/>
    <trip id="39" depart="39.00" from="6053715" to="47969697#2"/>
    <trip id="40" depart="40.00" from="6063116#3" to="6057087#1"/>
    <trip id="41" depart="41.00" from="-132601120#0" to="6053799#1"/>
    <trip id="42" depart="42.00" from="6060863" to="112325763"/>
    <trip id="43" depart="43.00" from="6062931#6" to="-136953505#31"/>
    <trip id="44" depart="44.00" from="-275390592#5" to="130908268#2"/>
    <trip id="45" depart="45.00" from="689663922#0" to="484896675#2"/>
    <trip id="46" depart="46.00" from="-50530209#2" to="-6061064#1"/>
    <trip id="47" depart="47.00" from="583876492#2" to="479467013#14"/>
    <trip id="48" depart="48.00" from="397339879#3" to="6056228#8"/>
    <trip id="49" depart="49.00" from="6058281#3" to="-77449775#5"/>
    <trip id="50" depart="50.00" from="468875460" to="401096886#0"/>
    <trip id="51" depart="51.00" from="-6060729" to="-507336292#1"/>
    <trip id="52" depart="52.00" from="-553575417#2" to="6056266#5"/>
    <trip id="53" depart="53.00" from="6056479#5" to="468428564#1"/>
    <trip id="54" depart="54.00" from="-6061889#3" to="-468469890#1"/>
    <trip id="55" depart="55.00" from="132894103#1" to="117125681#2"/>
    <trip id="56" depart="56.00" from="-6061869#5" to="6062547#3"/>
    <trip id="57" depart="57.00" from="6061999#8" to="131052410#0"/>
    <trip id="58" depart="58.00" from="-6054311" to="-202992520#8"/>
    <trip id="59" depart="59.00" from="-476103813#0" to="50331776"/>
    <trip id="60" depart="60.00" from="-87150491#0" to="-696063564"/>
    <trip id="61" depart="61.00" from="130676661#0" to="-289197052#7"/>
    <trip id="62" depart="62.00" from="413577942#8" to="535651034"/>
    <trip id="63" depart="63.00" from="6057816#1" to="38132832#0"/>
    <trip id="64" depart="64.00" from="6061615" to="421263466"/>
    <trip id="65" depart="65.00" from="-297254928#1" to="623353237"/>
    <trip id="66" depart="66.00" from="481337644#3" to="6060558#12"/>
    <trip id="67" depart="67.00" from="308752727#1" to="397280725#1"/>
    <trip id="68" depart="68.00" from="-6060456#5" to="-87144376#3"/>
    <trip id="69" depart="69.00" from="-509624720" to="6053846#10"/>
    <trip id="70" depart="70.00" from="-6059154#1" to="-77449646#0"/>
    <trip id="71" depart="71.00" from="109672314#0" to="-401096888#0"/>
    <trip id="72" depart="72.00" from="-476103805" to="87036501#1"/>
    <trip id="73" depart="73.00" from="6061200#7" to="130908164#2"/>
    <trip id="74" depart="74.00" from="-421800694#5" to="-6057544#1"/>
    <trip id="75" depart="75.00" from="-180347067" to="-553575435#2"/>
    <trip id="76" depart="76.00" from="421983323#12" to="-6060983#7"/>
    <trip id="77" depart="77.00" from="6062852#1" to="-112433943"/>
    <trip id="78" depart="78.00" from="-6063434#0" to="421948774#2"/>
    <trip id="79" depart="79.00" from="-117090349#3" to="-6061366#1"/>
    <trip id="80" depart="80.00" from="50501880#0" to="6057958#8"/>
    <trip id="81" depart="81.00" from="81139671#5" to="-6060001#0"/>
    <trip id="82" depart="82.00" from="-6063126#3" to="6058501#1"/>
    <trip id="83" depart="83.00" from="-132902438#8" to="6055045#8"/>
    <trip id="84" depart="84.00" from="6062404#6" to="131076050#0"/>
    <trip id="85" depart="85.00" from="-6061897#1" to="6063040#8"/>
    <trip id="86" depart="86.00" from="-47916243#0" to="346627385#30"/>
    <trip id="87" depart="87.00" from="132686590#18" to="-86982240#8"/>
    <trip id="88" depart="88.00" from="6054543#1" to="6063444#9"/>
    <trip id="89" depart="89.00" from="-583864874#4" to="6056153#1"/>
    <trip id="90" depart="90.00" from="6062176#3" to="6054245#3"/>
    <trip id="91" depart="91.00" from="77449658#2" to="6058942#1"/>
    <trip id="92" depart="92.00" from="6060400#5" to="6060865#1"/>
    <trip id="93" depart="93.00" from="397295634" to="56228624#3"/>
    <trip id="94" depart="94.00" from="-435275253#2" to="37867142"/>
    <trip id="95" depart="95.00" from="-130908302#2" to="-6055482#2"/>
    <trip id="96" depart="96.00" from="6055251" to="50757343#18"/>
    <trip id="97" depart="97.00" from="130772886#1" to="-6054300#1"/>
    <trip id="98" depart="98.00" from="77449641#1" to="-6062806#1"/>
    <trip id="99" depart="99.00" from="-6055482#2" to="-130917534#5"/>
    <trip id="100" depart="100.00" from="-6062241#12" to="-465392209#1"/>
    <trip id="101" depart="101.00" from="271115526#0" to="-108402598#5"/>
    <trip id="102" depart="102.00" from="6056153#4" to="51373073#2"/>
    <trip id="103" depart="103.00" from="-6055473#1" to="-590598884#1"/>
    <trip id="104" depart="104.00" from="-132892239#2" to="50716096#1"/>
    <trip id="105" depart="105.00" from="-6061868#8" to="130808372"/>
    <trip id="106" depart="106.00" from="-633249816" to="6057163"/>
    <trip id="107" depart="107.00" from="6057705#1" to="6054005#0"/>
    <trip id="108" depart="108.00" from="397316180#0" to="479467013#1"/>
    <trip id="109" depart="109.00" from="-6058706#1" to="202992520#7"/>
    <trip id="110" depart="110.00" from="-6062462#3" to="-6062176#6"/>
    <trip id="111" depart="111.00" from="481821822#11" to="640255668"/>
    <trip id="112" depart="112.00" from="-130908296#8" to="-541167584#6"/>
    <trip id="113" depart="113.00" from="-723610179" to="481794822#1"/>
    <trip id="114" depart="114.00" from="49809725#1" to="397355103#0"/>
    <trip id="115" depart="115.00" from="-130927041#6" to="-132636250#1"/>
    <trip id="116" depart="116.00" from="6055878#2" to="289197052#5"/>
    <trip id="117" depart="117.00" from="468835498" to="6061030#6"/>
    <trip id="118" depart="118.00" from="468283854#1" to="553575521#3"/>
    <trip id="119" depart="119.00" from="-6053736#2" to="-6056950#1"/>
    <trip id="120" depart="120.00" from="-6058113#1" to="506824303"/>
    <trip id="121" depart="121.00" from="-131520154#3" to="-6053656#0"/>
    <trip id="122" depart="122.00" from="-583907228#2" to="484896675#0"/>
    <trip id="123" depart="123.00" from="520475706#0" to="421948774#7"/>
    <trip id="124" depart="124.00" from="-468432399" to="6061381#7"/>
    <trip id="125" depart="125.00" from="130917534#21" to="481337569#3"/>
    <trip id="126" depart="126.00" from="-6061036#1" to="-6061408#5"/>
    <trip id="127" depart="127.00" from="-6056686#1" to="-6058855#7"/>
    <trip id="128" depart="128.00" from="6057728#2" to="6062874#0"/>
    <trip id="129" depart="129.00" from="-6059044#1" to="6055425#0"/>
    <trip id="130" depart="130.00" from="6057561#1" to="6058147#9"/>
    <trip id="131" depart="131.00" from="-6057023#0" to="396678072#2"/>
    <trip id="132" depart="132.00" from="397348706#1" to="-6054207#4"/>
    <trip id="133" depart="133.00" from="81139665#7" to="535550117#0"/>
    <trip id="134" depart="134.00" from="246556624" to="553575415#2"/>
    <trip id="135" depart="135.00" from="6053736#1" to="-6051410"/>
    <trip id="136" depart="136.00" from="6060857#6" to="361443218"/>
    <trip id="137" depart="137.00" from="-484896675#3" to="6055418#16"/>
    <trip id="138" depart="138.00" from="506967618#2" to="-106879366#1"/>
    <trip id="139" depart="139.00" from="-132636251#3" to="6061449#2"/>
    <trip id="140" depart="140.00" from="-77449776#7" to="6055722#1"/>
    <trip id="141" depart="141.00" from="302630836#0" to="640521226#19"/>
    <trip id="142" depart="142.00" from="397303390" to="6056078#1"/>
    <trip id="143" depart="143.00" from="-296756722#0" to="-6058346#9"/>
    <trip id="144" depart="144.00" from="-347004691#1" to="331914019"/>
    <trip id="145" depart="145.00" from="6061202#3" to="589551079"/>
    <trip id="146" depart="146.00" from="-6061487#5" to="-169276724#1"/>
    <trip id="147" depart="147.00" from="6058525#1" to="-278418916#1"/>
    <trip id="148" depart="148.00" from="6061387#4" to="-86749845#4"/>
    <trip id="149" depart="149.00" from="-130927084#5" to="-6055496#3"/>
    <trip id="150" depart="150.00" from="215309357#2" to="590581774#1"/>
    <trip id="151" depart="151.00" from="397352745#3" to="535492268"/>
    <trip id="152" depart="152.00" from="-275400461#12" to="6057581#4"/>
    <trip id="153" depart="153.00" from="572980947" to="86982251#1"/>
    <trip id="154" depart="154.00" from="296951209#1" to="-589905405#1"/>
    <trip id="155" depart="155.00" from="6056145#0" to="-138672582#8"/>
    <trip id="156" depart="156.00" from="-581122737" to="6054388#12"/>
    <trip id="157" depart="157.00" from="-6055722#1" to="6058854#0"/>
    <trip id="158" depart="158.00" from="438960035#0" to="278156221#0"/>
    <trip id="159" depart="159.00" from="-590598904#1" to="-6059076#4"/>
    <trip id="160" depart="160.00" from="-5967457#0" to="-87150468#0"/>
    <trip id="161" depart="161.00" from="-589905667#2" to="-468433520"/>
    <trip id="162" depart="162.00" from="130808357" to="-590525543#8"/>
    <trip id="163" depart="163.00" from="-6063461#9" to="130802367#1"/>
    <trip id="164" depart="164.00" from="696198848#5" to="6058381#3"/>
    <trip id="165" depart="165.00" from="590669500" to="6058488#2"/>
    <trip id="166" depart="166.00" from="-6058985#7" to="-135619145#1"/>
    <trip id="167" depart="167.00" from="6062548#0" to="-6055924#5"/>
    <trip id="168" depart="168.00" from="6054616#1" to="6059916#8"/>
    <trip id="169" depart="169.00" from="215309358#5" to="-6057159#1"/>
    <trip id="170" depart="170.00" from="6062559#6" to="-468396196#0"/>
    <trip id="171" depart="171.00" from="-50760311#3" to="397252651"/>
    <trip id="172" depart="172.00" from="-345388377" to="-130802352"/>
    <trip id="173" depart="173.00" from="6052660" to="6062415#2"/>
    <trip id="174" depart="174.00" from="6052994" to="132777773#4"/>
    <trip id="175" depart="175.00" from="67762310#8" to="-6058243#10"/>
    <trip id="176" depart="176.00" from="589905486#2" to="581254102#1"/>
    <trip id="177" depart="177.00" from="-288579361#19" to="-87150468#6"/>
    <trip id="178" depart="178.00" from="397271279#0" to="116822276#1"/>
    <trip id="179" depart="179.00" from="-6063094#0" to="-352698515#0"/>
    <trip id="180" depart="180.00" from="6062686#2" to="-397278031#3"/>
    <trip id="181" depart="181.00" from="-6062967#3" to="-6062657"/>
    <trip id="182" depart="182.00" from="-6051755#3" to="-590598894#1"/>
    <trip id="183" depart="183.00" from="6061868#4" to="-138672580#16"/>
    <trip id="184" depart="184.00" from="-6059519#28" to="469221774"/>
    <trip id="185" depart="185.00" from="-130676661#0" to="684178509#1"/>
    <trip id="186" depart="186.00" from="397331629#1" to="590525641"/>
    <trip id="187" depart="187.00" from="421760758" to="138672582#10"/>
    <trip id="188" depart="188.00" from="586326622#8" to="130927090#14"/>
    <trip id="189" depart="189.00" from="-35600666#0" to="6054294#1"/>
    <trip id="190" depart="190.00" from="-132601119#1" to="-86982843#6"/>
    <trip id="191" depart="191.00" from="6057152#1" to="117090354#4"/>
    <trip id="192" depart="192.00" from="-6061301#2" to="-6059097#1"/>
    <trip id="193" depart="193.00" from="6063086#1" to="6053009#4"/>
    <trip id="194" depart="194.00" from="552240851#3" to="575569267#0"/>
    <trip id="195" depart="195.00" from="278110618#1" to="113273159#4"/>
    <trip id="196" depart="196.00" from="468422261" to="-6055604#12"/>
    <trip id="197" depart="197.00" from="590598890#2" to="253129262#1"/>
    <trip id="198" depart="198.00" from="520476683#3" to="506975710"/>
    <trip id="199" depart="199.00" from="-6060400#2" to="6055309#0"/>
    <trip id="200" depart="200.00" from="130927049#0" to="403570354#2"/>
    <trip id="201" depart="201.00" from="396675444#1" to="296272890#0"/>
    <trip id="202" depart="202.00" from="-6063458" to="439875858#7"/>
    <trip id="203" depart="203.00" from="-109663680#1" to="-6054954#6"/>
    <trip id="204" depart="204.00" from="6056394#3" to="62333459#2"/>
    <trip id="205" depart="205.00" from="439871398#1" to="131118557#2"/>
    <trip id="206" depart="206.00" from="318314602#0" to="132777773#1"/>
    <trip id="207" depart="207.00" from="361447661#3" to="-221687642#3"/>
    <trip id="208" depart="208.00" from="109667753#1" to="-403570354#0"/>
    <trip id="209" depart="209.00" from="-346627382#1" to="6060780"/>
    <trip id="210" depart="210.00" from="468424407" to="6061357#1"/>
    <trip id="211" depart="211.00" from="-6059710#0" to="-6057660"/>
    <trip id="212" depart="212.00" from="50515736#1" to="6056724#1"/>
    <trip id="213" depart="213.00" from="50496676" to="6055019"/>
    <trip id="214" depart="214.00" from="133914379#16" to="286359263#2"/>
    <trip id="215" depart="215.00" from="67457766#1" to="81139670#4"/>
    <trip id="216" depart="216.00" from="-6056538#3" to="6059730#2"/>
    <trip id="217" depart="217.00" from="-583694839#4" to="6055585#5"/>
    <trip id="218" depart="218.00" from="-6058527#2" to="6055490#5"/>
    <trip id="219" depart="219.00" from="6056046" to="-6061629#0"/>
    <trip id="220" depart="220.00" from="6058381#3" to="121980288#0"/>
    <trip id="221" depart="221.00" from="131052504#5" to="50530123#0"/>
    <trip id="222" depart="222.00" from="6058965#2" to="6055368#4"/>
    <trip id="223" depart="223.00" from="6057991#2" to="-130927029"/>
    <trip id="224" depart="224.00" from="-6059519#48" to="29235004#0"/>
    <trip id="225" depart="225.00" from="6054528#6" to="131462998#2"/>
    <trip id="226" depart="226.00" from="-6052167" to="589533518#5"/>
    <trip id="227" depart="227.00" from="86467702#4" to="132902426#0"/>
    <trip id="228" depart="228.00" from="-397339879#6" to="-130808341"/>
    <trip id="229" depart="229.00" from="131446920#2" to="-81139670#7"/>
    <trip id="230" depart="230.00" from="-6061999#0" to="130908240#7"/>
    <trip id="231" depart="231.00" from="-6054403#2" to="-6054290#7"/>
    <trip id="232" depart="232.00" from="50715832" to="297226544#2"/>
    <trip id="233" depart="233.00" from="6056977#5" to="-6063197#15"/>
    <trip id="234" depart="234.00" from="6054597#10" to="-6060671#0"/>
    <trip id="235" depart="235.00" from="6053592" to="77449636#3"/>
    <trip id="236" depart="236.00" from="6055587#0" to="81139596#5"/>
    <trip id="237" depart="237.00" from="-6062237#1" to="-468433799#0"/>
    <trip id="238" depart="238.00" from="-131118565#0" to="-6058501#1"/>
    <trip id="239" depart="239.00" from="590581746" to="-131520097#6"/>
    <trip id="240" depart="240.00" from="6052486" to="130676661#5"/>
    <trip id="241" depart="241.00" from="-5984763" to="-627757316"/>
    <trip id="242" depart="242.00" from="6062557#0" to="-590581672#1"/>
    <trip id="243" depart="243.00" from="-6056951#5" to="86982843#13"/>
    <trip id="244" depart="244.00" from="-130908232#24" to="-553317608#2"/>
    <trip id="245" depart="245.00" from="479467013#4" to="-6054851#0"/>
    <trip id="246" depart="246.00" from="-468443855" to="590525546#0"/>
    <trip id="247" depart="247.00" from="-130908064#6" to="275390463#4"/>
    <trip id="248" depart="248.00" from="397293582" to="131270347#0"/>
    <trip id="249" depart="249.00" from="-6061399#2" to="6051709"/>
    <trip id="250" depart="250.00" from="6063170" to="396700174#1"/>
    <trip id="251" depart="251.00" from="-87211939#0" to="6058962#1"/>
    <trip id="252" depart="252.00" from="121980312" to="-551434844#1"/>
    <trip id="253" depart="253.00" from="6060904#0" to="6061413"/>
    <trip id="254" depart="254.00" from="6060251#0" to="627125818"/>
    <trip id="255" depart="255.00" from="130927039#2" to="6057172#2"/>
    <trip id="256" depart="256.00" from="56228625#0" to="-130927093#2"/>
    <trip id="257" depart="257.00" from="-423119724#2" to="199920713#2"/>
    <trip id="258" depart="258.00" from="-108402598#2" to="-6118668#0"/>
    <trip id="259" depart="259.00" from="-6060374#7" to="6061907#2"/>
    <trip id="260" depart="260.00" from="130908017" to="397356275#0"/>
    <trip id="261" depart="261.00" from="6056251#2" to="397316523#0"/>
    <trip id="262" depart="262.00" from="-6062912#0" to="535489416#2"/>
    <trip id="263" depart="263.00" from="-67762310#23" to="6058568#0"/>
    <trip id="264" depart="264.00" from="6059944#1" to="-589551080#1"/>
    <trip id="265" depart="265.00" from="-583953651#2" to="-6056911#1"/>
    <trip id="266" depart="266.00" from="50757343#23" to="6060815#3"/>
    <trip id="267" depart="267.00" from="130927010#0" to="-6051241#1"/>
    <trip id="268" depart="268.00" from="-297367507#1" to="-664055502#1"/>
    <trip id="269" depart="269.00" from="6062880#0" to="6054354#0"/>
    <trip id="270" depart="270.00" from="49085299" to="696234527#2"/>
    <trip id="271" depart="271.00" from="583988081" to="51857288"/>
    <trip id="272" depart="272.00" from="29234991#5" to="-6051570"/>
    <trip id="273" depart="273.00" from="-6061369#3" to="587523335"/>
    <trip id="274" depart="274.00" from="50524890#9" to="130908296#1"/>
    <trip id="275" depart="275.00" from="497173872#3" to="-77449654#4"/>
    <trip id="276" depart="276.00" from="-6060081#5" to="421948774#1"/>
    <trip id="277" depart="277.00" from="-6056943#3" to="-6063089#3"/>
    <trip id="278" depart="278.00" from="683232181#2" to="6053702#0"/>
    <trip id="279" depart="279.00" from="-6053550#2" to="-6060452#10"/>
    <trip id="280" depart="280.00" from="468835503" to="590581613#2"/>
    <trip id="281" depart="281.00" from="-131118538#10" to="468479825"/>
    <trip id="282" depart="282.00" from="-6054851#3" to="-6062116#1"/>
    <trip id="283" depart="283.00" from="535563679#0" to="6053545"/>
    <trip id="284" depart="284.00" from="130908292#0" to="6062919#0"/>
    <trip id="285" depart="285.00" from="-6062895#2" to="132667471#2"/>
    <trip id="286" depart="286.00" from="-120478418#1" to="-221687642#6"/>
    <trip id="287" depart="287.00" from="131462961#1" to="-131144295#2"/>
    <trip id="288" depart="288.00" from="-6054251#1" to="-6060009"/>
    <trip id="289" depart="289.00" from="-397273213#1" to="365813298#1"/>
    <trip id="290" depart="290.00" from="-6062522#9" to="468495105"/>
    <trip id="291" depart="291.00" from="6062404#1" to="506964661"/>
    <trip id="292" depart="292.00" from="-62333459#2" to="-273788119#3"/>
    <trip id="293" depart="293.00" from="-6054104#1" to="130764308"/>
    <trip id="294" depart="294.00" from="-6061887#11" to="380165547#4"/>
    <trip id="295" depart="295.00" from="-589905699#0" to="-6057441#7"/>
    <trip id="296" depart="296.00" from="-125568106#5" to="-583907229#3"/>
    <trip id="297" depart="297.00" from="-6054240#3" to="132671195#0"/>
    <trip id="298" depart="298.00" from="6063281#2" to="6053561#1"/>
    <trip id="299" depart="299.00" from="138672582#3" to="-132776195#0"/>
    <trip id="300" depart="300.00" from="-6059836#1" to="-130908005#3"/>
    <trip id="301" depart="301.00" from="6062172#0" to="-535651035#0"/>
    <trip id="302" depart="302.00" from="6062173#0" to="520463956#4"/>
    <trip id="303" depart="303.00" from="6111947#0" to="321002383#2"/>
    <trip id="304" depart="304.00" from="-468475026#1" to="-6062025#1"/>
    <trip id="305" depart="305.00" from="-6055917#1" to="107269517#13"/>
    <trip id="306" depart="306.00" from="130808364#0" to="298699150"/>
    <trip id="307" depart="307.00" from="6061987#3" to="296352768#1"/>
    <trip id="308" depart="308.00" from="132601008#4" to="583953651#1"/>
    <trip id="309" depart="309.00" from="6052665" to="-6059519#45"/>
    <trip id="310" depart="310.00" from="-130889754#2" to="50429913"/>
    <trip id="311" depart="311.00" from="-6060283#1" to="86982842#0"/>
    <trip id="312" depart="312.00" from="-130927102#1" to="6054180"/>
    <trip id="313" depart="313.00" from="203022895#10" to="294891266#1"/>
    <trip id="314" depart="314.00" from="56228627#0" to="397305612"/>
    <trip id="315" depart="315.00" from="130908240#0" to="-24963150#0"/>
    <trip id="316" depart="316.00" from="6061869#3" to="-590525553#1"/>
    <trip id="317" depart="317.00" from="50429921" to="321477125#5"/>
    <trip id="318" depart="318.00" from="6057192#0" to="-50503620#4"/>
    <trip id="319" depart="319.00" from="-6057652#0" to="340368802#4"/>
    <trip id="320" depart="320.00" from="6061894" to="298159848#0"/>
    <trip id="321" depart="321.00" from="-132894069#0" to="660349573#2"/>
    <trip id="322" depart="322.00" from="6057172#3" to="131052497#3"/>
    <trip id="323" depart="323.00" from="6060413#3" to="397318416#1"/>
    <trip id="324" depart="324.00" from="468820726#0" to="-6061954"/>
    <trip id="325" depart="325.00" from="104456359#1" to="6054104#1"/>
    <trip id="326" depart="326.00" from="589905499#2" to="470160764#0"/>
    <trip id="327" depart="327.00" from="112318780#1" to="-133945988#2"/>
    <trip id="328" depart="328.00" from="-6054317#4" to="590581709#2"/>
    <trip id="329" depart="329.00" from="203010879#2" to="6055608#4"/>
    <trip id="330" depart="330.00" from="-130927052#15" to="-117131126#8"/>
    <trip id="331" depart="331.00" from="-6060433#11" to="-106129000"/>
    <trip id="332" depart="332.00" from="397295397" to="-6056443#0"/>
    <trip id="333" depart="333.00" from="6055045#1" to="-321158436#2"/>
    <trip id="334" depart="334.00" from="-6051972#3" to="320991919#14"/>
    <trip id="335" depart="335.00" from="401096878#1" to="-590598909#2"/>
    <trip id="336" depart="336.00" from="-37867818#4" to="275400464"/>
    <trip id="337" depart="337.00" from="-112267128#1" to="-47920781"/>
    <trip id="338" depart="338.00" from="-130908067#2" to="-131144295#4"/>
    <trip id="339" depart="339.00" from="402287297#3" to="130808364#1"/>
    <trip id="340" depart="340.00" from="29235004#0" to="6057609#5"/>
    <trip id="341" depart="341.00" from="-50760311#4" to="130917545"/>
    <trip id="342" depart="342.00" from="6058147#7" to="-6058863#0"/>
    <trip id="343" depart="343.00" from="-6055605#0" to="-131520064#0"/>
    <trip id="344" depart="344.00" from="6059799#2" to="-130788110#4"/>
    <trip id="345" depart="345.00" from="-138672582#6" to="117117772#0"/>
    <trip id="346" depart="346.00" from="6060081#3" to="50094735#0"/>
    <trip id="347" depart="347.00" from="6054274#4" to="-138672810#2"/>
    <trip id="348" depart="348.00" from="6054533#0" to="6062412#3"/>
    <trip id="349" depart="349.00" from="6060558#7" to="397325599"/>
    <trip id="350" depart="350.00" from="296127978#1" to="-86982254#12"/>
    <trip id="351" depart="351.00" from="6061671" to="6060070#0"/>
    <trip id="352" depart="352.00" from="581526858" to="6061212"/>
    <trip id="353" depart="353.00" from="-6059519#30" to="6058558#6"/>
    <trip id="354" depart="354.00" from="130908107#10" to="6061950#3"/>
    <trip id="355" depart="355.00" from="-130927010#0" to="-6062431#12"/>
    <trip id="356" depart="356.00" from="397301596#1" to="-6058863#13"/>
    <trip id="357" depart="357.00" from="397248564#3" to="-112320365"/>
    <trip id="358" depart="358.00" from="-346627387#0" to="366731347#2"/>
    <trip id="359" depart="359.00" from="-50484868#1" to="-6109295#0"/>
    <trip id="360" depart="360.00" from="136953505#14" to="-6061954"/>
    <trip id="361" depart="361.00" from="-50507959#1" to="29235014"/>
    <trip id="362" depart="362.00" from="-130927049#5" to="-6060087#1"/>
    <trip id="363" depart="363.00" from="6062189#1" to="87490264#6"/>
    <trip id="364" depart="364.00" from="344730218#0" to="-6055237#5"/>
    <trip id="365" depart="365.00" from="6054631#3" to="542019869#7"/>
    <trip id="366" depart="366.00" from="361434497#0" to="-6063358#2"/>
    <trip id="367" depart="367.00" from="50429766#1" to="6056769#14"/>
    <trip id="368" depart="368.00" from="468486221#1" to="-274203086#1"/>
    <trip id="369" depart="369.00" from="6061051#1" to="-6054821#16"/>
    <trip id="370" depart="370.00" from="-131118557#14" to="436080556#6"/>
    <trip id="371" depart="371.00" from="-6058147#1" to="137733572#1"/>
    <trip id="372" depart="372.00" from="6061029#2" to="6054169#2"/>
    <trip id="373" depart="373.00" from="296936313" to="275390590#0"/>
    <trip id="374" depart="374.00" from="29964836#6" to="450360592#0"/>
    <trip id="375" depart="375.00" from="-6052046#0" to="397296277#9"/>
    <trip id="376" depart="376.00" from="-6063194#0" to="298832261#1"/>
    <trip id="377" depart="377.00" from="6062174#0" to="133496797#0"/>
    <trip id="378" depart="378.00" from="-6058538#1" to="-6061200#0"/>
    <trip id="379" depart="379.00" from="-590581701" to="6057172#2"/>
    <trip id="380" depart="380.00" from="-6063387#16" to="-6058874#0"/>
    <trip id="381" depart="381.00" from="5987387" to="-273194157#0"/>
    <trip id="382" depart="382.00" from="130908067#0" to="-71449576#2"/>
    <trip id="383" depart="383.00" from="132577607#2" to="6053736#3"/>
    <trip id="384" depart="384.00" from="50525440#6" to="346681296#12"/>
    <trip id="385" depart="385.00" from="590581675#1" to="6052936"/>
    <trip id="386" depart="386.00" from="6061443#2" to="130908218#2"/>
    <trip id="387" depart="387.00" from="397301349" to="6055573#12"/>
    <trip id="388" depart="388.00" from="6063339#0" to="6060812#2"/>
    <trip id="389" depart="389.00" from="-422411000#4" to="-397297468#2"/>
    <trip id="390" depart="390.00" from="273788119#1" to="50515736#0"/>
    <trip id="391" depart="391.00" from="397297538" to="121980264#2"/>
    <trip id="392" depart="392.00" from="131448570#1" to="117125674#2"/>
    <trip id="393" depart="393.00" from="-589551031" to="-6054960#7"/>
    <trip id="394" depart="394.00" from="-590581691#2" to="683943765#0"/>
    <trip id="395" depart="395.00" from="131520203#4" to="6063464#3"/>
    <trip id="396" depart="396.00" from="525678568" to="-6063116#0"/>
    <trip id="397" depart="397.00" from="-6060504#2" to="-6054290#0"/>
    <trip id="398" depart="398.00" from="-130676661#8" to="-6055516#1"/>
    <trip id="399" depart="399.00" from="-6056966#15" to="6062471#6"/>
    <trip id="400" depart="400.00" from="6057721" to="397273223"/>
    <trip id="401" depart="401.00" from="6063202#2" to="-450556654#1"/>
    <trip id="402" depart="402.00" from="130908208#3" to="135353868#0"/>
    <trip id="403" depart="403.00" from="6052391#1" to="6055710#1"/>
    <trip id="404" depart="404.00" from="583642326#5" to="6056973#0"/>
    <trip id="405" depart="405.00" from="47916249" to="294891305#1"/>
    <trip id="406" depart="406.00" from="-466352084#2" to="132776189#1"/>
    <trip id="407" depart="407.00" from="-497151803" to="130927105#0"/>
    <trip id="408" depart="408.00" from="6062211#9" to="-6061573#0"/>
    <trip id="409" depart="409.00" from="6054895#16" to="6059729"/>
    <trip id="410" depart="410.00" from="-397280577#0" to="-6059793#0"/>
    <trip id="411" depart="411.00" from="-370809190#0" to="397282340#0"/>
    <trip id="412" depart="412.00" from="-6054164" to="-6060481#0"/>
    <trip id="413" depart="413.00" from="-112326324#0" to="397300800#2"/>
    <trip id="414" depart="414.00" from="-132601117#2" to="6062404#1"/>
    <trip id="415" depart="415.00" from="-6056032#0" to="6053876#1"/>
    <trip id="416" depart="416.00" from="557071940#1" to="6055549#1"/>
    <trip id="417" depart="417.00" from="-345713230#0" to="-6053736#1"/>