<additional >

<edgeData id="measure1" file="dayuan.output.xml"/>

</additional>