<?xml version="1.0" encoding="UTF-8"?>
<!-- generated on 2019-09-27 15:43:39.218890 by $Id$
  options: -n district-of-columbia.net.xml -r district-of-columbia.rou.xml <doubleminus>fringe-factor 100 <doubleminus>end 1800 <doubleminus>period 0.5
-->
<routes xmlns:xsi="http://www.w3.org/2001/XMLSchema-instance" xsi:noNamespaceSchemaLocation="http://sumo.dlr.de/xsd/routes_file.xsd">
    <trip id="0" depart="0.00" from="-6057345#1" to="-6056316#4"/>
    <trip id="1" depart="0.50" from="6057282#0" to="6058655#2"/>
    <trip id="2" depart="1.00" from="-6055090#1" to="-105649640#2"/>
    <trip id="3" depart="1.50" from="-130927017" to="-5991188#0"/>
    <trip id="4" depart="2.00" from="-117090352#2" to="6059777"/>
    <trip id="5" depart="2.50" from="-6110382" to="109431928#0"/>
    <trip id="6" depart="3.00" from="-6053219" to="-139007290#1"/>
    <trip id="7" depart="3.50" from="-131118538#11" to="6052951"/>
    <trip id="8" depart="4.00" from="397331597#0" to="-6054463"/>
    <trip id="9" depart="4.50" from="6061285#0" to="-6060468#2"/>
    <trip id="10" depart="5.00" from="-350890372" to="6054421"/>
    <trip id="11" depart="5.50" from="-6062986#1" to="-296971548#0"/>
    <trip id="12" depart="6.00" from="-296862681#2" to="-102416743#1"/>
    <trip id="13" depart="6.50" from="-468450579#0" to="-6057978#5"/>
    <trip id="14" depart="7.00" from="-6055978#2" to="-6057333#0"/>
    <trip id="15" depart="7.50" from="-330259171#1" to="-6052182"/>
    <trip id="16" depart="8.00" from="-131118538#11" to="-468435337#0"/>
    <trip id="17" depart="8.50" from="-148773145#4" to="6109126"/>
    <trip id="18" depart="9.00" from="-87148938#0" to="-6060607#1"/>
    <trip id="19" depart="9.50" from="-590598887#4" to="132601119#5"/>
    <trip id="20" depart="10.00" from="6057862" to="87150526#1"/>
    <trip id="21" depart="10.50" from="50584860" to="24617300#2"/>
    <trip id="22" depart="11.00" from="6063197#1" to="130754653"/>
    <trip id="23" depart="11.50" from="353057899#0" to="-6055987#11"/>
    <trip id="24" depart="12.00" from="509646035#1" to="-583906906#8"/>
    <trip id="25" depart="12.50" from="6057283#0" to="105742819"/>
    <trip id="26" depart="13.00" from="-6060012" to="6052936"/>
    <trip id="27" depart="13.50" from="6062078#0" to="590598920#2"/>
    <trip id="28" depart="14.00" from="590598911#2" to="6051664#0"/>
    <trip id="29" depart="14.50" from="130788219#2" to="6063343#1"/>
    <trip id="30" depart="15.00" from="-6052165#1" to="6055892#8"/>
    <trip id="31" depart="15.50" from="606187837" to="5987733#1"/>
    <trip id="32" depart="16.00" from="509324732" to="-468494964#3"/>
    <trip id="33" depart="16.50" from="6052242" to="50795346"/>
    <trip id="34" depart="17.00" from="-346627389#11" to="-6057333#0"/>
    <trip id="35" depart="17.50" from="-305855590#1" to="627126359"/>
    <trip id="36" depart="18.00" from="29964846#1" to="590525521#1"/>
    <trip id="37" depart="18.50" from="6060793#6" to="-50629414#5"/>
    <trip id="38" depart="19.00" from="553575498#2" to="-297204289#0"/>
    <trip id="39" depart="19.50" from="126303363" to="6125349"/>
    <trip id="40" depart="20.00" from="-590581669" to="-6061992"/>
    <trip id="41" depart="20.50" from="-6058719#0" to="6055545#3"/>
    <trip id="42" depart="21.00" from="-6059836#7" to="130285141#3"/>
    <trip id="43" depart="21.50" from="6052091#0" to="-131076063#1"/>
    <trip id="44" depart="22.00" from="6061842" to="6061646"/>
    <trip id="45" depart="22.50" from="6056692" to="50501881"/>
    <trip id="46" depart="23.00" from="-5988761#2" to="-111851484#4"/>
    <trip id="47" depart="23.50" from="-6058397#4" to="5976883#1"/>
    <trip id="48" depart="24.00" from="6055577#1" to="-323912792#1"/>
    <trip id="49" depart="24.50" from="6054631#5" to="321034012"/>
    <trip id="50" depart="25.00" from="-6054043#12" to="365813296"/>
    <trip id="51" depart="25.50" from="-6059959" to="695997669#1"/>
    <trip id="52" depart="26.00" from="274704935#0" to="49824292#2"/>
    <trip id="53" depart="26.50" from="297226541" to="6059921#2"/>
    <trip id="54" depart="27.00" from="273194158" to="-6056457#1"/>
    <trip id="55" depart="27.50" from="50425284#0" to="6059357#3"/>
    <trip id="56" depart="28.00" from="-6058484#6" to="6063126#5"/>
    <trip id="57" depart="28.50" from="-365813298#1" to="-86982841"/>
    <trip id="58" depart="29.00" from="6054124#2" to="555136037#1"/>
    <trip id="59" depart="29.50" from="83424560#2" to="-6053033#0"/>
    <trip id="60" depart="30.00" from="-378471067#1" to="-67762310#8"/>
    <trip id="61" depart="30.50" from="6062364#5" to="6052114#2"/>
    <trip id="62" depart="31.00" from="-6052866" to="-73703657#5"/>
    <trip id="63" depart="31.50" from="250709242#0" to="-6057595#1"/>
    <trip id="64" depart="32.00" from="-5986553" to="725078400"/>
    <trip id="65" depart="32.50" from="-6054869" to="276679653#0"/>
    <trip id="66" depart="33.00" from="375435798#0" to="-297059394"/>
    <trip id="67" depart="33.50" from="297226543#0" to="409551582"/>
    <trip id="68" depart="34.00" from="-6058837#2" to="121980232"/>
    <trip id="69" depart="34.50" from="-130917532#1" to="6062103#14"/>
    <trip id="70" depart="35.00" from="-6053733#1" to="6062648#1"/>
    <trip id="71" depart="35.50" from="339755064#0" to="-6052634"/>
    <trip id="72" depart="36.00" from="50560691" to="6130614#1"/>
    <trip id="73" depart="36.50" from="-6052172#1" to="-590581626#3"/>
    <trip id="74" depart="37.00" from="6054124#0" to="6056800"/>
    <trip id="75" depart="37.50" from="397323171#0" to="45309209"/>
    <trip id="76" depart="38.00" from="-361450985" to="-332061230"/>
    <trip id="77" depart="38.50" from="-132892239#3" to="-297059394"/>
    <trip id="78" depart="39.00" from="-6054284#3" to="-6062975"/>
    <trip id="79" depart="39.50" from="121980262#0" to="5971411"/>
    <trip id="80" depart="40.00" from="-5991379" to="170765324#3"/>
    <trip id="81" depart="40.50" from="116044202#0" to="142571022#2"/>
    <trip id="82" depart="41.00" from="-6053115" to="-253129351#0"/>
    <trip id="83" depart="41.50" from="112268335#2" to="6056655#1"/>
    <trip id="84" depart="42.00" from="-6061413" to="8797575#1"/>
    <trip id="85" depart="42.50" from="132639271#2" to="50506190#2"/>
    <trip id="86" depart="43.00" from="-87150518#9" to="6062211#6"/>
    <trip id="87" depart="43.50" from="6056951#0" to="-6063047"/>
    <trip id="88" depart="44.00" from="589905653#2" to="-6053033#0"/>
    <trip id="89" depart="44.50" from="-6057260" to="6136226#1"/>
    <trip id="90" depart="45.00" from="-683968383#1" to="601402994#0"/>
    <trip id="91" depart="45.50" from="105649640#0" to="-507046918"/>
    <trip id="92" depart="46.00" from="130772886#0" to="513597964"/>
    <trip id="93" depart="46.50" from="297204280" to="-553322573"/>
    <trip id="94" depart="47.00" from="-6058558#16" to="130889702#3"/>
    <trip id="95" depart="47.50" from="6056088#0" to="6142965#1"/>
    <trip id="96" depart="48.00" from="-6056727" to="6058484#6"/>
    <trip id="97" depart="48.50" from="-6062886#4" to="6062790"/>
    <trip id="98" depart="49.00" from="-321158838#3" to="-6052634"/>
    <trip id="99" depart="49.50" from="-6054261#10" to="-6063339#0"/>
    <trip id="100" depart="50.00" from="6055750#0" to="6109584"/>
    <trip id="101" depart="50.50" from="6057014#1" to="-397283344#0"/>
    <trip id="102" depart="51.00" from="-6054523#3" to="683448507#3"/>
    <trip id="103" depart="51.50" from="6063222#2" to="117090355#1"/>
    <trip id="104" depart="52.00" from="-6057544#1" to="6114093"/>
    <trip id="105" depart="52.50" from="116044202#0" to="-339755064#0"/>
    <trip id="106" depart="53.00" from="6059499#0" to="6055344"/>
    <trip id="107" depart="53.50" from="-6053203" to="-6052066"/>
    <trip id="108" depart="54.00" from="59374526#1" to="130772928#1"/>
    <trip id="109" depart="54.50" from="-50519365#9" to="50560673"/>
    <trip id="110" depart="55.00" from="-50530100#2" to="-6053266"/>
    <trip id="111" depart="55.50" from="-49824292#2" to="6055565"/>
    <trip id="112" depart="56.00" from="139007291" to="50586366"/>
    <trip id="113" depart="56.50" from="6061195#0" to="250708453#4"/>
    <trip id="114" depart="57.00" from="50560691" to="6109126"/>
    <trip id="115" depart="57.50" from="6056871#0" to="5987733#1"/>
    <trip id="116" depart="58.00" from="-6110382" to="130802354"/>
    <trip id="117" depart="58.50" from="6059671#20" to="6054377#1"/>
    <trip id="118" depart="59.00" from="-6061310#2" to="590598887#4"/>
    <trip id="119" depart="59.50" from="-308752727#1" to="297226536#0"/>
    <trip id="120" depart="60.00" from="606187837" to="589551018#1"/>
    <trip id="121" depart="60.50" from="6060886#1" to="5982619"/>
    <trip id="122" depart="61.00" from="-148773145#4" to="-6051488"/>
    <trip id="123" depart="61.50" from="-6060857#6" to="402287305#0"/>
    <trip id="124" depart="62.00" from="-6061233#1" to="-6061504"/>
    <trip id="125" depart="62.50" from="534162551#0" to="695997669#1"/>
    <trip id="126" depart="63.00" from="520475706#0" to="6053276#1"/>
    <trip id="127" depart="63.50" from="-6052866" to="581248435#1"/>
    <trip id="128" depart="64.00" from="-132671195#4" to="6061505#0"/>
    <trip id="129" depart="64.50" from="-135367158" to="6110382"/>
    <trip id="130" depart="65.00" from="-105823176#2" to="233155726"/>
    <trip id="131" depart="65.50" from="-6053223#1" to="-130788227#6"/>
    <trip id="132" depart="66.00" from="-6062206#6" to="-321158436#0"/>
    <trip id="133" depart="66.50" from="6061305#6" to="6053828"/>
    <trip id="134" depart="67.00" from="-308737806" to="-112320578#2"/>
    <trip id="135" depart="67.50" from="590598913" to="-6056918"/>
    <trip id="136" depart="68.00" from="6137471" to="-86982841"/>
    <trip id="137" depart="68.50" from="-50531685" to="-6056963"/>
    <trip id="138" depart="69.00" from="6061918" to="52054288#1"/>
    <trip id="139" depart="69.50" from="6063384#0" to="5967457#1"/>
    <trip id="140" depart="70.00" from="6060107#0" to="435273192#6"/>
    <trip id="141" depart="70.50" from="6280736#0" to="130754653"/>
    <trip id="142" depart="71.00" from="6056758#0" to="-131240442#2"/>
    <trip id="143" depart="71.50" from="-6055299#7" to="125568114#5"/>
    <trip id="144" depart="72.00" from="-6109473" to="6054321#2"/>
    <trip id="145" depart="72.50" from="6142554" to="-6056479#3"/>
    <trip id="146" depart="73.00" from="-6054421" to="-6057280#3"/>
    <trip id="147" depart="73.50" from="-151105220" to="-6056918"/>
    <trip id="148" depart="74.00" from="-6052936" to="-6061030#0"/>
    <trip id="149" depart="74.50" from="38061557#10" to="121980232"/>
    <trip id="150" depart="75.00" from="-402287293#7" to="6057249"/>
    <trip id="151" depart="75.50" from="6059499#0" to="-6061887#1"/>
    <trip id="152" depart="76.00" from="-6055539" to="6061351"/>
    <trip id="153" depart="76.50" from="-6059044#2" to="6052866"/>
    <trip id="154" depart="77.00" from="6060107#0" to="26708310#2"/>
    <trip id="155" depart="77.50" from="50425284#0" to="-6063345#0"/>
    <trip id="156" depart="78.00" from="6056963" to="6056334#1"/>
    <trip id="157" depart="78.50" from="297226543#0" to="6060621#3"/>
    <trip id="158" depart="79.00" from="5988905#0" to="696198858#1"/>
    <trip id="159" depart="79.50" from="-6060267" to="627260120"/>
    <trip id="160" depart="80.00" from="50511197#0" to="-112268336"/>
    <trip id="161" depart="80.50" from="-367152826#10" to="-6054269#0"/>
    <trip id="162" depart="81.00" from="402278352" to="-6053216"/>
    <trip id="163" depart="81.50" from="-6057183" to="6058962#3"/>
    <trip id="164" depart="82.00" from="50712488#1" to="131520058"/>
    <trip id="165" depart="82.50" from="6062029#0" to="6061832#5"/>
    <trip id="166" depart="83.00" from="6062975" to="-6054387#0"/>
    <trip id="167" depart="83.50" from="296797874#0" to="-6061195#0"/>
    <trip id="168" depart="84.00" from="6058225" to="274385786"/>
    <trip id="169" depart="84.50" from="-6061183#1" to="-361443419"/>
    <trip id="170" depart="85.00" from="6054124#0" to="97167279"/>
    <trip id="171" depart="85.50" from="-5991696" to="-297059394"/>
    <trip id="172" depart="86.00" from="6057504#1" to="6062982#3"/>
    <trip id="173" depart="86.50" from="6139330" to="44638519"/>
    <trip id="174" depart="87.00" from="-554691394#1" to="50530100#2"/>
    <trip id="175" depart="87.50" from="-5991379" to="6062194#7"/>
    <trip id="176" depart="88.00" from="122078378#1" to="-6051395#0"/>
    <trip id="177" depart="88.50" from="-117090355#1" to="6054851#4"/>
    <trip id="178" depart="89.00" from="-105823176#2" to="468884158"/>
    <trip id="179" depart="89.50" from="-422410355#0" to="6058251#7"/>
    <trip id="180" depart="90.00" from="-116837465#1" to="6056325#1"/>
    <trip id="181" depart="90.50" from="6052075#3" to="5991379"/>
    <trip id="182" depart="91.00" from="-6056796#4" to="-296938224#1"/>
    <trip id="183" depart="91.50" from="-5988761#2" to="-6053949#0"/>
    <trip id="184" depart="92.00" from="-6114095" to="-6056686#18"/>
    <trip id="185" depart="92.50" from="-6059858#6" to="76318618#8"/>
    <trip id="186" depart="93.00" from="-627126359" to="519851444"/>
    <trip id="187" depart="93.50" from="-6142962" to="6056433#1"/>
    <trip id="188" depart="94.00" from="-5975546#1" to="6109586#1"/>
    <trip id="189" depart="94.50" from="-683993905#0" to="6054175"/>
    <trip id="190" depart="95.00" from="-6063126#5" to="148773145#4"/>
    <trip id="191" depart="95.50" from="6137471" to="-6060651#0"/>
    <trip id="192" depart="96.00" from="6056871#0" to="365813298#1"/>
    <trip id="193" depart="96.50" from="-465392209#2" to="-6058576"/>
    <trip id="194" depart="97.00" from="-50629349#0" to="590581516"/>
    <trip id="195" depart="97.50" from="6060270#0" to="6063335"/>
    <trip id="196" depart="98.00" from="-6053702#2" to="-6054198#0"/>
    <trip id="197" depart="98.50" from="-321033747" to="-6054536"/>
    <trip id="198" depart="99.00" from="6062034#0" to="488437675"/>
    <trip id="199" depart="99.50" from="488800714#0" to="-138672810#1"/>
    <trip id="200" depart="100.00" from="6056871#0" to="683960448"/>
    <trip id="201" depart="100.50" from="321033378#0" to="-581729865"/>
    <trip id="202" depart="101.00" from="590605528#1" to="-6052114#0"/>
    <trip id="203" depart="101.50" from="321033378#0" to="-476103813#0"/>
    <trip id="204" depart="102.00" from="130889714" to="-6062638#0"/>
    <trip id="205" depart="102.50" from="-6058479#4" to="6111284"/>
    <trip id="206" depart="103.00" from="38110185" to="50477920"/>
    <trip id="207" depart="103.50" from="6058057#0" to="-86982841"/>
    <trip id="208" depart="104.00" from="6061162#0" to="-6054672"/>
    <trip id="209" depart="104.50" from="375435798#0" to="-428668518"/>
    <trip id="210" depart="105.00" from="8824366#0" to="6055575"/>
    <trip id="211" depart="105.50" from="6063072#0" to="6055978#2"/>
    <trip id="212" depart="106.00" from="6058714" to="6060983#9"/>
    <trip id="213" depart="106.50" from="-130908179#15" to="6053598#2"/>
    <trip id="214" depart="107.00" from="6057081#0" to="6053871#1"/>
    <trip id="215" depart="107.50" from="6057506" to="-321033378#0"/>
    <trip id="216" depart="108.00" from="6111934" to="151105220"/>
    <trip id="217" depart="108.50" from="-583868273#3" to="130927091"/>
    <trip id="218" depart="109.00" from="695997806#0" to="-6055817#2"/>
    <trip id="219" depart="109.50" from="-590598887#4" to="6062648#1"/>
    <trip id="220" depart="110.00" from="5985464#0" to="6058836#3"/>
    <trip id="221" depart="110.50" from="-148773145#4" to="-130908170#1"/>
    <trip id="222" depart="111.00" from="-695997716" to="6054821#12"/>
    <trip id="223" depart="111.50" from="-6053736#6" to="131520161#2"/>
    <trip id="224" depart="112.00" from="296139724" to="138672579"/>
    <trip id="225" depart="112.50" from="-5987733#1" to="6063343#1"/>
    <trip id="226" depart="113.00" from="-6057902#3" to="4681186#3"/>
    <trip id="227" depart="113.50" from="-362492262#3" to="590581677#5"/>
    <trip id="228" depart="114.00" from="-134861099#4" to="553595598#1"/>
    <trip id="229" depart="114.50" from="409541713" to="-6054899#0"/>
    <trip id="230" depart="115.00" from="-6057458" to="-397316195#0"/>
    <trip id="231" depart="115.50" from="687602856" to="6062152"/>
    <trip id="232" depart="116.00" from="535728617#0" to="-6061693#0"/>
    <trip id="233" depart="116.50" from="29961684#0" to="-6061717#0"/>
    <trip id="234" depart="117.00" from="6061137#9" to="-6063083#0"/>
    <trip id="235" depart="117.50" from="-50710204#0" to="-6053216"/>
    <trip id="236" depart="118.00" from="-488459766#7" to="514721789#2"/>
    <trip id="237" depart="118.50" from="-6056727" to="6054364#6"/>
    <trip id="238" depart="119.00" from="-6055144" to="-130927072"/>
    <trip id="239" depart="119.50" from="-77449658#1" to="6109126"/>
    <trip id="240" depart="120.00" from="133809937" to="365813300#1"/>
    <trip id="241" depart="120.50" from="-361443218" to="497151803"/>
    <trip id="242" depart="121.00" from="-439696478#9" to="-6056731"/>
    <trip id="243" depart="121.50" from="-6056661#0" to="469090503"/>
    <trip id="244" depart="122.00" from="6052091#0" to="590598881"/>
    <trip id="245" depart="122.50" from="-6059959" to="-6057952#4"/>
    <trip id="246" depart="123.00" from="6054261#3" to="6123503"/>
    <trip id="247" depart="123.50" from="6142554" to="6062263"/>
    <trip id="248" depart="124.00" from="-397269995#1" to="6059021"/>
    <trip id="249" depart="124.50" from="6059823#0" to="8796663"/>
    <trip id="250" depart="125.00" from="250708453#0" to="-6063434#4"/>
    <trip id="251" depart="125.50" from="6061370#4" to="497184701"/>
    <trip id="252" depart="126.00" from="6053552#0" to="6062263"/>
    <trip id="253" depart="126.50" from="535728617#0" to="6055790#1"/>
    <trip id="254" depart="127.00" from="-6061458#1" to="-6056951#0"/>
    <trip id="255" depart="127.50" from="339755064#0" to="-6060982#4"/>
    <trip id="256" depart="128.00" from="6056918" to="-6054419#0"/>
    <trip id="257" depart="128.50" from="-6062465" to="-583906906#13"/>
    <trip id="258" depart="129.00" from="-6109473" to="-273194158"/>
    <trip id="259" depart="129.50" from="50426891" to="321158128#1"/>
    <trip id="260" depart="130.00" from="-5977415" to="-6061874#0"/>
    <trip id="261" depart="130.50" from="-590598903" to="553575389#1"/>
    <trip id="262" depart="131.00" from="-6057183" to="6062724#3"/>
    <trip id="263" depart="131.50" from="-590598903" to="6063348#1"/>
    <trip id="264" depart="132.00" from="-6054458#1" to="-428668518"/>
    <trip id="265" depart="132.50" from="6053223#0" to="52050893#0"/>
    <trip id="266" depart="133.00" from="-6124278" to="131520202#7"/>
    <trip id="267" depart="133.50" from="488998589#0" to="-6054668#6"/>
    <trip id="268" depart="134.00" from="397296277#7" to="-59374531"/>
    <trip id="269" depart="134.50" from="-6052167" to="-6062206#2"/>
    <trip id="270" depart="135.00" from="132902438#8" to="86982843#5"/>
    <trip id="271" depart="135.50" from="-6052175#1" to="-6062359#4"/>
    <trip id="272" depart="136.00" from="6058855#10" to="535713068#1"/>
    <trip id="273" depart="136.50" from="86982247#6" to="6062565#2"/>
    <trip id="274" depart="137.00" from="-237100955#4" to="397283337"/>
    <trip id="275" depart="137.50" from="-5991265" to="-6055235#4"/>
    <trip id="276" depart="138.00" from="-6053231" to="6054785#0"/>
    <trip id="277" depart="138.50" from="-6134370#1" to="6053131#1"/>
    <trip id="278" depart="139.00" from="77449776#11" to="50560677"/>
    <trip id="279" depart="139.50" from="-6060632" to="-131520262#1"/>
    <trip id="280" depart="140.00" from="6061607" to="-250709242#0"/>
    <trip id="281" depart="140.50" from="-6057224#0" to="-6055705#7"/>
    <trip id="282" depart="141.00" from="6061285#0" to="6063264"/>
    <trip id="283" depart="141.50" from="-6061999#13" to="6053195"/>
    <trip id="284" depart="142.00" from="-6059978#4" to="6061979#3"/>
    <trip id="285" depart="142.50" from="6061495#2" to="6052175#1"/>
    <trip id="286" depart="143.00" from="-6060935#1" to="117116043#1"/>
    <trip id="287" depart="143.50" from="-365813298#1" to="-6052910"/>
    <trip id="288" depart="144.00" from="-361443218" to="140210012"/>
    <trip id="289" depart="144.50" from="-496921083" to="513597964"/>
    <trip id="290" depart="145.00" from="50427962#1" to="6059044#2"/>
    <trip id="291" depart="145.50" from="-6058601#1" to="-6057835#2"/>
    <trip id="292" depart="146.00" from="104456359#1" to="6054363#2"/>
    <trip id="293" depart="146.50" from="130808379#2" to="-590581717"/>
    <trip id="294" depart="147.00" from="590598912#2" to="6063044#1"/>
    <trip id="295" depart="147.50" from="-151105220" to="535728618#1"/>
    <trip id="296" depart="148.00" from="-6062423#3" to="-6057425"/>
    <trip id="297" depart="148.50" from="6060567#0" to="6142965#1"/>
    <trip id="298" depart="149.00" from="-6055144" to="38132569"/>
    <trip id="299" depart="149.50" from="6058391#0" to="497184701"/>
    <trip id="300" depart="150.00" from="274704935#0" to="-102416743#0"/>
    <trip id="301" depart="150.50" from="-5987733#1" to="275402747#2"/>
    <trip id="302" depart="151.00" from="296971548#3" to="590598880"/>
    <trip id="303" depart="151.50" from="-6054376" to="397279314#2"/>
    <trip id="304" depart="152.00" from="722047743#0" to="6063164#6"/>
    <trip id="305" depart="152.50" from="-6058661#16" to="6142965#1"/>
    <trip id="306" depart="153.00" from="-6053550#3" to="-193043589#0"/>
    <trip id="307" depart="153.50" from="-6052086#1" to="-250708908#1"/>
    <trip id="308" depart="154.00" from="-130889754#13" to="397293598#1"/>
    <trip id="309" depart="154.50" from="454833746#1" to="6059922"/>
    <trip id="310" depart="155.00" from="-6053195" to="215307084#5"/>
    <trip id="311" depart="155.50" from="468283860#0" to="-6056963"/>
    <trip id="312" depart="156.00" from="-6063335" to="6055565"/>
    <trip id="313" depart="156.50" from="6052066" to="6061701#2"/>
    <trip id="314" depart="157.00" from="6058959#0" to="-683999549#2"/>
    <trip id="315" depart="157.50" from="-6057851#9" to="45741718"/>
    <trip id="316" depart="158.00" from="-5980881" to="298832240#2"/>
    <trip id="317" depart="158.50" from="-6054036#2" to="6139063#1"/>
    <trip id="318" depart="159.00" from="-365813298#1" to="6061898#2"/>
    <trip id="319" depart="159.50" from="695997806#0" to="-37867149#0"/>
    <trip id="320" depart="160.00" from="6053727" to="-6060109#0"/>
    <trip id="321" depart="160.50" from="87211939#3" to="-6053223#0"/>
    <trip id="322" depart="161.00" from="6055699" to="6060070#1"/>
    <trip id="323" depart="161.50" from="-37867818#5" to="5981638#1"/>
    <trip id="324" depart="162.00" from="297204289#0" to="6056943#2"/>
    <trip id="325" depart="162.50" from="6055058" to="6060012"/>
    <trip id="326" depart="163.00" from="-6061346#2" to="703930735"/>
    <trip id="327" depart="163.50" from="627723198" to="-204597376#0"/>
    <trip id="328" depart="164.00" from="6057078#16" to="-296797874#2"/>
    <trip id="329" depart="164.50" from="-6056952#0" to="-50524880#11"/>
    <trip id="330" depart="165.00" from="-203172958#1" to="581248435#1"/>
    <trip id="331" depart="165.50" from="294891266#1" to="6058092"/>
    <trip id="332" depart="166.00" from="703930732" to="-367163533"/>
    <trip id="333" depart="166.50" from="397321108#0" to="29235013#9"/>
    <trip id="334" depart="167.00" from="-131052466#5" to="130714951#0"/>
    <trip id="335" depart="167.50" from="-131520202#7" to="-6063145#2"/>
    <trip id="336" depart="168.00" from="8823477" to="-131240390#0"/>
    <trip id="337" depart="168.50" from="-350890372" to="-131520192#4"/>
    <trip id="338" depart="169.00" from="346627389#7" to="50506638#1"/>
    <trip id="339" depart="169.50" from="-6053223#1" to="-371299611#2"/>
    <trip id="340" depart="170.00" from="-423355466" to="-6060107#0"/>
    <trip id="341" depart="170.50" from="6053707#11" to="-122345939#0"/>
    <trip id="342" depart="171.00" from="-6054220#1" to="-6053823#2"/>
    <trip id="343" depart="171.50" from="-6057842#4" to="345388377"/>
    <trip id="344" depart="172.00" from="-288579361#8" to="-6061205#0"/>
    <trip id="345" depart="172.50" from="-6053828" to="-6060081#0"/>
    <trip id="346" depart="173.00" from="-298327124#3" to="361452462"/>
    <trip id="347" depart="173.50" from="401096881#6" to="6143357"/>
    <trip id="348" depart="174.00" from="-648005848#13" to="6059959"/>
    <trip id="349" depart="174.50" from="6056998" to="6051376"/>
    <trip id="350" depart="175.00" from="-554691394#1" to="-117131820#0"/>
    <trip id="351" depart="175.50" from="506705171#9" to="6057004"/>
    <trip id="352" depart="176.00" from="-6059922" to="6061956#1"/>
    <trip id="353" depart="176.50" from="-5981226#1" to="6059873#1"/>
    <trip id="354" depart="177.00" from="112192535#0" to="6060856#0"/>
    <trip id="355" depart="177.50" from="-274385786" to="683999549#0"/>
    <trip id="356" depart="178.00" from="-6060861" to="296139729"/>
    <trip id="357" depart="178.50" from="-627147837" to="-6053174#4"/>
    <trip id="358" depart="179.00" from="-132686590#3" to="-6052114#0"/>
    <trip id="359" depart="179.50" from="6124789" to="-6054693#10"/>
    <trip id="360" depart="180.00" from="6055880" to="-6054387#0"/>
    <trip id="361" depart="180.50" from="581526854#12" to="6063207#1"/>
    <trip id="362" depart="181.00" from="6062241#15" to="-6061359"/>
    <trip id="363" depart="181.50" from="274704935#0" to="6051509#0"/>
    <trip id="364" depart="182.00" from="250708453#0" to="4681186#3"/>
    <trip id="365" depart="182.50" from="6058586#6" to="6054290#5"/>
    <trip id="366" depart="183.00" from="77449656#4" to="-296139714#8"/>
    <trip id="367" depart="183.50" from="-126303367" to="6056087"/>
    <trip id="368" depart="184.00" from="-6054321#2" to="130927045#2"/>
    <trip id="369" depart="184.50" from="105742485#0" to="590581620#3"/>
    <trip id="370" depart="185.00" from="553322571" to="6053223#1"/>
    <trip id="371" depart="185.50" from="-68358970" to="130788132#2"/>
    <trip id="372" depart="186.00" from="6053216" to="-6058036#3"/>
    <trip id="373" depart="186.50" from="402278352" to="6051941#7"/>
    <trip id="374" depart="187.00" from="-6062973" to="589551018#1"/>
    <trip id="375" depart="187.50" from="-6060939#0" to="130908242#8"/>
    <trip id="376" depart="188.00" from="-553229223#1" to="117090348#1"/>
    <trip id="377" depart="188.50" from="-87147889" to="6063346#1"/>
    <trip id="378" depart="189.00" from="117614803" to="-6058128#6"/>
    <trip id="379" depart="189.50" from="-6058403#12" to="6143357"/>
    <trip id="380" depart="190.00" from="50558471" to="6057304#0"/>
    <trip id="381" depart="190.50" from="130285135#1" to="-6056951#0"/>
    <trip id="382" depart="191.00" from="6061504" to="-6055742#0"/>
    <trip id="383" depart="191.50" from="-6062886#4" to="-6058271#0"/>
    <trip id="384" depart="192.00" from="-6056796#4" to="6062263"/>
    <trip id="385" depart="192.50" from="-6055006#3" to="-6063345#0"/>
    <trip id="386" depart="193.00" from="-6062431#10" to="-6058714"/>
    <trip id="387" depart="193.50" from="583906908#1" to="553595598#1"/>
    <trip id="388" depart="194.00" from="321033378#0" to="298303320#1"/>
    <trip id="389" depart="194.50" from="-6059044#2" to="-297059394"/>
    <trip id="390" depart="195.00" from="357223743#0" to="-590581670#3"/>
    <trip id="391" depart="195.50" from="130889704#4" to="468428567#1"/>
    <trip id="392" depart="196.00" from="-6113771" to="-6053552#0"/>
    <trip id="393" depart="196.50" from="-130764316#7" to="112343453#1"/>
    <trip id="394" depart="197.00" from="86982841" to="131520148#4"/>
    <trip id="395" depart="197.50" from="6061270#0" to="321158128#1"/>
    <trip id="396" depart="198.00" from="135131304" to="6061458#1"/>
    <trip id="397" depart="198.50" from="-193043589#1" to="-661634726#0"/>
    <trip id="398" depart="199.00" from="468468976#0" to="553317607"/>
    <trip id="399" depart="199.50" from="-6054261#10" to="-6051395#0"/>
    <trip id="400" depart="200.00" from="-435134458#2" to="6061626#2"/>
    <trip id="401" depart="200.50" from="-6056894#1" to="-589551024#4"/>
    <trip id="402" depart="201.00" from="-6139521#1" to="6060607#2"/>
    <trip id="403" depart="201.50" from="288579317#1" to="695997780"/>
    <trip id="404" depart="202.00" from="-6057808#2" to="6062846"/>
    <trip id="405" depart="202.50" from="589905456#1" to="-6144195"/>
    <trip id="406" depart="203.00" from="-397278031#3" to="50426889#1"/>
    <trip id="407" depart="203.50" from="6053992#0" to="131520167#0"/>
    <trip id="408" depart="204.00" from="535489065#27" to="6052058#11"/>
    <trip id="409" depart="204.50" from="-6062440" to="6055172"/>
    <trip id="410" depart="205.00" from="514215557" to="550861596"/>
    <trip id="411" depart="205.50" from="-6053552#1" to="132601008#18"/>
    <trip id="412" depart="206.00" from="6051395#0" to="6060632"/>
    <trip id="413" depart="206.50" from="-6061702#1" to="-6062168#2"/>
    <trip id="414" depart="207.00" from="-6059978#4" to="6134976#2"/>
    <trip id="415" depart="207.50" from="-508536195#1" to="6059501"/>
    <trip id="416" depart="208.00" from="5968135" to="-130927054#2"/>
    <trip id="417" depart="208.50" from="130908128#0" to="6139063#1"/>
    <trip id="418" depart="209.00" from="6052060#5" to="-6062975"/>
    <trip id="419" depart="209.50" from="-6063026#4" to="6142965#1"/>
    <trip id="420" depart="210.00" from="6052182" to="5984997"/>
    <trip id="421" depart="210.50" from="250708454#4" to="6062790"/>
    <trip id="422" depart="211.00" from="5991188#0" to="-6061430#0"/>
    <trip id="423" depart="211.50" from="-6055070" to="-6054029"/>
    <trip id="424" depart="212.00" from="6058281#6" to="-6054654"/>